                                   MODFLOW 6
                U.S. GEOLOGICAL SURVEY MODULAR HYDROLOGIC MODEL
                          GROUNDWATER FLOW MODEL (GWF)
                            VERSION 6.6.2 05/12/2025

   MODFLOW 6 compiled May 12 2025 12:42:18 with Intel(R) Fortran Intel(R) 64
   Compiler Classic for applications running on Intel(R) 64, Version 2021.7.0
                             Build 20220726_000000

This software has been approved for release by the U.S. Geological 
Survey (USGS). Although the software has been subjected to rigorous 
review, the USGS reserves the right to update the software as needed 
pursuant to further analysis and review. No warranty, expressed or 
implied, is made by the USGS or the U.S. Government as to the 
functionality of the software and related material nor shall the 
fact of release constitute any such warranty. Furthermore, the 
software is released on condition that neither the USGS nor the U.S. 
Government shall be held liable for any damages resulting from its 
authorized or unauthorized use. Also refer to the USGS Water 
Resources Software User Rights Notice for complete use, copyright, 
and distribution information.


As a work of the United States Government, this USGS product is 
in the public domain within the United States. You can copy, 
modify, distribute, and perform the work, even for commercial 
purposes, all without asking permission. Additionally, USGS 
waives copyright and related rights in the work worldwide 
through CC0 1.0 Universal Public Domain Dedication 
(https://creativecommons.org/publicdomain/zero/1.0/).

The following GNU Lesser General Public License (LGPL) libraries
are used in this USGS product:

    SPARSKIT version 2.0
      ilut, luson, and qsplit 
      (https://www-users.cse.umn.edu/~saad/software/SPARSKIT/)

    RCM - Reverse Cuthill McKee Ordering
      (https://people.math.sc.edu/Burkardt/f_src/rcm/rcm.html)

    BLAS - Basic Linear Algebra Subprograms Level 1
      (https://people.math.sc.edu/Burkardt/f_src/blas1_d/blas1_d.html)

    SPARSEKIT - Sparse Matrix Utility Package
      amux, dperm, dvperm, rperm, and cperm
      (https://people.sc.fsu.edu/~jburkardt/f77_src/sparsekit/sparsekit.html)

The following BSD-3 License libraries are used in this USGS product:

    Modern Fortran DAG Library
      Copyright (c) 2018, Jacob Williams
      All rights reserved.
      (https://github.com/jacobwilliams/daglib)

MODFLOW 6 compiler options: /Isrc\libmf6core.a.p /Isrc /I..\src
/Isrc\libmf6_external.a.p /MT /nologo /warn:general /warn:truncated_source
/stand:f18 /O2 /fpe:0 /heap-arrays:0 /traceback /fpp /Qdiag-disable:7416
/Qdiag-disable:7025 /Qdiag-disable:5268 /Qdiag-disable:10448
/Fdsrc\libmf6core.a.p\Utilities_compilerversion.F90.pdb
/module:src\libmf6core.a.p
/Fosrc/libmf6core.a.p/Utilities_compilerversion.F90.obj /c

System command used to initiate simulation:
D:\underwater_data\final\1_프로그램\bin\mf6.exe

MODFLOW was compiled using uniform precision.

Real Variables
  KIND: 8
  TINY (smallest non-zero value):    2.225074-308
  HUGE (largest value):    1.797693+308
  PRECISION: 15
  SIZE IN BITS: 64

Integer Variables
  KIND: 4
  HUGE (largest value): 2147483647
  SIZE IN BITS: 32

Long Integer Variables
  KIND: 8
  HUGE (largest value): 9223372036854775807
  SIZE IN BITS: 64

Logical Variables
  KIND: 4
  SIZE IN BITS: 32
 
 NAMEFILE OPTIONS:
    FLOWS WILL BE SAVED TO BUDGET FILE SPECIFIED IN OUTPUT CONTROL
 END NAMEFILE OPTIONS:

 DIS -- STRUCTURED GRID DISCRETIZATION PACKAGE, VERSION 2 : 3/27/2014 - INPUT READ FROM MEMPATH: __INPUT__/GWFMODEL/DIS                            


 NPF -- NODE PROPERTY FLOW PACKAGE, VERSION 1, 3/30/2015 INPUT READ FROM MEMPATH: __INPUT__/GWFMODEL/NPF                            


 IC -- Initial Conditions Package, Version 8, 3/28/2015 input read from mempath: __INPUT__/GWFMODEL/IC                             


 Setting Discretization Options
 End Setting Discretization Options

 Setting Discretization Dimensions
    NLAY = 1
    NROW = 100
    NCOL = 100
 End Setting Discretization Dimensions

 Setting Discretization Griddata
    DELR set from input file
    DELC set from input file
    TOP set from input file
    BOTM set from input file
 End Setting Discretization Griddata

 Setting NPF Options
 End Setting NPF Options

 Setting NPF Griddata
    ICELLTYPE set from input file
    K set from input file
    K33 not provided.  Setting K33 = K.
    K22 not provided.  Setting K22 = K.
 End Setting NPF Griddata

    STRT set from input file

 STO -- STORAGE PACKAGE, VERSION 1, 5/19/2014 INPUT READ FROM MEMPATH: __INPUT__/GWFMODEL/STO                            


 PROCESSING STORAGE OPTIONS
 END OF STORAGE OPTIONS
    BINARY GRID INFORMATION WILL BE WRITTEN TO:
      UNIT NUMBER: 1011
      FILE NAME: gwfmodel.dis.grb

 OPENED gwfmodel.dis.grb
 FILE TYPE:DATA(BINARY)   UNIT 1011   STATUS:REPLACE             
 FORMAT:UNFORMATTED            ACCESS:STREAM              
 ACTION:READWRITE           

      THE LAST TIME STEP WILL BE PRINTED
      THE LAST TIME STEP WILL BE PRINTED
 # File generated by Flopy version 3.9.3 on 07/27/2025 at 12:58:28.

 PROCESSING OC OPTIONS

    BUDGET INFORMATION WILL BE WRITTEN TO:
      UNIT NUMBER: 1012
      FILE NAME: gwfmodel.cbc

 OPENED gwfmodel.cbc
 FILE TYPE:DATA(BINARY)   UNIT 1012   STATUS:REPLACE             
 FORMAT:UNFORMATTED            ACCESS:STREAM              
 ACTION:READWRITE           

    HEAD INFORMATION WILL BE WRITTEN TO:
      UNIT NUMBER: 1013
      FILE NAME: gwfmodel.hds

 OPENED gwfmodel.hds
 FILE TYPE:DATA(BINARY)   UNIT 1013   STATUS:REPLACE             
 FORMAT:UNFORMATTED            ACCESS:STREAM              
 ACTION:READWRITE           

 END OF OC OPTIONS

start timestep kper="1" kstp="1" mode="normal"


 BEGIN READING OUTPUT CONTROL FOR STRESS PERIOD 1
      ALL TIME STEPS WILL BE SAVED
      ALL TIME STEPS WILL BE SAVED
      THE LAST TIME STEP WILL BE PRINTED
      THE LAST TIME STEP WILL BE PRINTED

 END READING OUTPUT CONTROL FOR STRESS PERIOD 1
 UBDSV1 SAVING           STO-SS ON UNIT   1012 AT TIME STEP      1, STRESS PERIOD      1
 UBDSV1 SAVING           STO-SY ON UNIT   1012 AT TIME STEP      1, STRESS PERIOD      1
 UBDSV1 SAVING     FLOW-JA-FACE ON UNIT   1012 AT TIME STEP      1, STRESS PERIOD      1
1
  HEAD IN LAYER   1 AT END OF TIME STEP   1 IN STRESS PERIOD    1
  ---------------------------------------------------------------------------

 ........................................................................................................................................................................................................................................................................................................................................................................................................................................................................................................................................................................................................................................................................................................................................................................................................................................................................................................................................................................................................................................
   1    10.00       10.00       10.00       10.00       10.00       10.00       10.00       10.00       10.00       10.00    
        10.00       10.00       10.00       10.00       10.00       10.00       10.00       10.00       10.00       10.00    
        10.00       10.00       10.00       10.00       10.00       10.00       10.00       10.00       10.00       10.00    
        10.00       10.00       10.00       10.00       10.00       10.00       10.00       10.00       10.00       10.00    
        10.00       10.00       10.00       10.00       10.00       10.00       10.00       10.00       10.00       10.00    
        10.00       10.00       10.00       10.00       10.00       10.00       10.00       10.00       10.00       10.00    
        10.00       10.00       10.00       10.00       10.00       10.00       10.00       10.00       10.00       10.00    
        10.00       10.00       10.00       10.00       10.00       10.00       10.00       10.00       10.00       10.00    
        10.00       10.00       10.00       10.00       10.00       10.00       10.00       10.00       10.00       10.00    
        10.00       10.00       10.00       10.00       10.00       10.00       10.00       10.00       10.00       10.00    
   2    10.00       10.00       10.00       10.00       10.00       10.00       10.00       10.00       10.00       10.00    
        10.00       10.00       10.00       10.00       10.00       10.00       10.00       10.00       10.00       10.00    
        10.00       10.00       10.00       10.00       10.00       10.00       10.00       10.00       10.00       10.00    
        10.00       10.00       10.00       10.00       10.00       10.00       10.00       10.00       10.00       10.00    
        10.00       10.00       10.00       10.00       10.00       10.00       10.00       10.00       10.00       10.00    
        10.00       10.00       10.00       10.00       10.00       10.00       10.00       10.00       10.00       10.00    
        10.00       10.00       10.00       10.00       10.00       10.00       10.00       10.00       10.00       10.00    
        10.00       10.00       10.00       10.00       10.00       10.00       10.00       10.00       10.00       10.00    
        10.00       10.00       10.00       10.00       10.00       10.00       10.00       10.00       10.00       10.00    
        10.00       10.00       10.00       10.00       10.00       10.00       10.00       10.00       10.00       10.00    
   3    10.00       10.00       10.00       10.00       10.00       10.00       10.00       10.00       10.00       10.00    
        10.00       10.00       10.00       10.00       10.00       10.00       10.00       10.00       10.00       10.00    
        10.00       10.00       10.00       10.00       10.00       10.00       10.00       10.00       10.00       10.00    
        10.00       10.00       10.00       10.00       10.00       10.00       10.00       10.00       10.00       10.00    
        10.00       10.00       10.00       10.00       10.00       10.00       10.00       10.00       10.00       10.00    
        10.00       10.00       10.00       10.00       10.00       10.00       10.00       10.00       10.00       10.00    
        10.00       10.00       10.00       10.00       10.00       10.00       10.00       10.00       10.00       10.00    
        10.00       10.00       10.00       10.00       10.00       10.00       10.00       10.00       10.00       10.00    
        10.00       10.00       10.00       10.00       10.00       10.00       10.00       10.00       10.00       10.00    
        10.00       10.00       10.00       10.00       10.00       10.00       10.00       10.00       10.00       10.00    
   4    10.00       10.00       10.00       10.00       10.00       10.00       10.00       10.00       10.00       10.00    
        10.00       10.00       10.00       10.00       10.00       10.00       10.00       10.00       10.00       10.00    
        10.00       10.00       10.00       10.00       10.00       10.00       10.00       10.00       10.00       10.00    
        10.00       10.00       10.00       10.00       10.00       10.00       10.00       10.00       10.00       10.00    
        10.00       10.00       10.00       10.00       10.00       10.00       10.00       10.00       10.00       10.00    
        10.00       10.00       10.00       10.00       10.00       10.00       10.00       10.00       10.00       10.00    
        10.00       10.00       10.00       10.00       10.00       10.00       10.00       10.00       10.00       10.00    
        10.00       10.00       10.00       10.00       10.00       10.00       10.00       10.00       10.00       10.00    
        10.00       10.00       10.00       10.00       10.00       10.00       10.00       10.00       10.00       10.00    
        10.00       10.00       10.00       10.00       10.00       10.00       10.00       10.00       10.00       10.00    
   5    10.00       10.00       10.00       10.00       10.00       10.00       10.00       10.00       10.00       10.00    
        10.00       10.00       10.00       10.00       10.00       10.00       10.00       10.00       10.00       10.00    
        10.00       10.00       10.00       10.00       10.00       10.00       10.00       10.00       10.00       10.00    
        10.00       10.00       10.00       10.00       10.00       10.00       10.00       10.00       10.00       10.00    
        10.00       10.00       10.00       10.00       10.00       10.00       10.00       10.00       10.00       10.00    
        10.00       10.00       10.00       10.00       10.00       10.00       10.00       10.00       10.00       10.00    
        10.00       10.00       10.00       10.00       10.00       10.00       10.00       10.00       10.00       10.00    
        10.00       10.00       10.00       10.00       10.00       10.00       10.00       10.00       10.00       10.00    
        10.00       10.00       10.00       10.00       10.00       10.00       10.00       10.00       10.00       10.00    
        10.00       10.00       10.00       10.00       10.00       10.00       10.00       10.00       10.00       10.00    
   6    10.00       10.00       10.00       10.00       10.00       10.00       10.00       10.00       10.00       10.00    
        10.00       10.00       10.00       10.00       10.00       10.00       10.00       10.00       10.00       10.00    
        10.00       10.00       10.00       10.00       10.00       10.00       10.00       10.00       10.00       10.00    
        10.00       10.00       10.00       10.00       10.00       10.00       10.00       10.00       10.00       10.00    
        10.00       10.00       10.00       10.00       10.00       10.00       10.00       10.00       10.00       10.00    
        10.00       10.00       10.00       10.00       10.00       10.00       10.00       10.00       10.00       10.00    
        10.00       10.00       10.00       10.00       10.00       10.00       10.00       10.00       10.00       10.00    
        10.00       10.00       10.00       10.00       10.00       10.00       10.00       10.00       10.00       10.00    
        10.00       10.00       10.00       10.00       10.00       10.00       10.00       10.00       10.00       10.00    
        10.00       10.00       10.00       10.00       10.00       10.00       10.00       10.00       10.00       10.00    
   7    10.00       10.00       10.00       10.00       10.00       10.00       10.00       10.00       10.00       10.00    
        10.00       10.00       10.00       10.00       10.00       10.00       10.00       10.00       10.00       10.00    
        10.00       10.00       10.00       10.00       10.00       10.00       10.00       10.00       10.00       10.00    
        10.00       10.00       10.00       10.00       10.00       10.00       10.00       10.00       10.00       10.00    
        10.00       10.00       10.00       10.00       10.00       10.00       10.00       10.00       10.00       10.00    
        10.00       10.00       10.00       10.00       10.00       10.00       10.00       10.00       10.00       10.00    
        10.00       10.00       10.00       10.00       10.00       10.00       10.00       10.00       10.00       10.00    
        10.00       10.00       10.00       10.00       10.00       10.00       10.00       10.00       10.00       10.00    
        10.00       10.00       10.00       10.00       10.00       10.00       10.00       10.00       10.00       10.00    
        10.00       10.00       10.00       10.00       10.00       10.00       10.00       10.00       10.00       10.00    
   8    10.00       10.00       10.00       10.00       10.00       10.00       10.00       10.00       10.00       10.00    
        10.00       10.00       10.00       10.00       10.00       10.00       10.00       10.00       10.00       10.00    
        10.00       10.00       10.00       10.00       10.00       10.00       10.00       10.00       10.00       10.00    
        10.00       10.00       10.00       10.00       10.00       10.00       10.00       10.00       10.00       10.00    
        10.00       10.00       10.00       10.00       10.00       10.00       10.00       10.00       10.00       10.00    
        10.00       10.00       10.00       10.00       10.00       10.00       10.00       10.00       10.00       10.00    
        10.00       10.00       10.00       10.00       10.00       10.00       10.00       10.00       10.00       10.00    
        10.00       10.00       10.00       10.00       10.00       10.00       10.00       10.00       10.00       10.00    
        10.00       10.00       10.00       10.00       10.00       10.00       10.00       10.00       10.00       10.00    
        10.00       10.00       10.00       10.00       10.00       10.00       10.00       10.00       10.00       10.00    
   9    10.00       10.00       10.00       10.00       10.00       10.00       10.00       10.00       10.00       10.00    
        10.00       10.00       10.00       10.00       10.00       10.00       10.00       10.00       10.00       10.00    
        10.00       10.00       10.00       10.00       10.00       10.00       10.00       10.00       10.00       10.00    
        10.00       10.00       10.00       10.00       10.00       10.00       10.00       10.00       10.00       10.00    
        10.00       10.00       10.00       10.00       10.00       10.00       10.00       10.00       10.00       10.00    
        10.00       10.00       10.00       10.00       10.00       10.00       10.00       10.00       10.00       10.00    
        10.00       10.00       10.00       10.00       10.00       10.00       10.00       10.00       10.00       10.00    
        10.00       10.00       10.00       10.00       10.00       10.00       10.00       10.00       10.00       10.00    
        10.00       10.00       10.00       10.00       10.00       10.00       10.00       10.00       10.00       10.00    
        10.00       10.00       10.00       10.00       10.00       10.00       10.00       10.00       10.00       10.00    
  10    10.00       10.00       10.00       10.00       10.00       10.00       10.00       10.00       10.00       10.00    
        10.00       10.00       10.00       10.00       10.00       10.00       10.00       10.00       10.00       10.00    
        10.00       10.00       10.00       10.00       10.00       10.00       10.00       10.00       10.00       10.00    
        10.00       10.00       10.00       10.00       10.00       10.00       10.00       10.00       10.00       10.00    
        10.00       10.00       10.00       10.00       10.00       10.00       10.00       10.00       10.00       10.00    
        10.00       10.00       10.00       10.00       10.00       10.00       10.00       10.00       10.00       10.00    
        10.00       10.00       10.00       10.00       10.00       10.00       10.00       10.00       10.00       10.00    
        10.00       10.00       10.00       10.00       10.00       10.00       10.00       10.00       10.00       10.00    
        10.00       10.00       10.00       10.00       10.00       10.00       10.00       10.00       10.00       10.00    
        10.00       10.00       10.00       10.00       10.00       10.00       10.00       10.00       10.00       10.00    
  11    10.00       10.00       10.00       10.00       10.00       10.00       10.00       10.00       10.00       10.00    
        10.00       10.00       10.00       10.00       10.00       10.00       10.00       10.00       10.00       10.00    
        10.00       10.00       10.00       10.00       10.00       10.00       10.00       10.00       10.00       10.00    
        10.00       10.00       10.00       10.00       10.00       10.00       10.00       10.00       10.00       10.00    
        10.00       10.00       10.00       10.00       10.00       10.00       10.00       10.00       10.00       10.00    
        10.00       10.00       10.00       10.00       10.00       10.00       10.00       10.00       10.00       10.00    
        10.00       10.00       10.00       10.00       10.00       10.00       10.00       10.00       10.00       10.00    
        10.00       10.00       10.00       10.00       10.00       10.00       10.00       10.00       10.00       10.00    
        10.00       10.00       10.00       10.00       10.00       10.00       10.00       10.00       10.00       10.00    
        10.00       10.00       10.00       10.00       10.00       10.00       10.00       10.00       10.00       10.00    
  12    10.00       10.00       10.00       10.00       10.00       10.00       10.00       10.00       10.00       10.00    
        10.00       10.00       10.00       10.00       10.00       10.00       10.00       10.00       10.00       10.00    
        10.00       10.00       10.00       10.00       10.00       10.00       10.00       10.00       10.00       10.00    
        10.00       10.00       10.00       10.00       10.00       10.00       10.00       10.00       10.00       10.00    
        10.00       10.00       10.00       10.00       10.00       10.00       10.00       10.00       10.00       10.00    
        10.00       10.00       10.00       10.00       10.00       10.00       10.00       10.00       10.00       10.00    
        10.00       10.00       10.00       10.00       10.00       10.00       10.00       10.00       10.00       10.00    
        10.00       10.00       10.00       10.00       10.00       10.00       10.00       10.00       10.00       10.00    
        10.00       10.00       10.00       10.00       10.00       10.00       10.00       10.00       10.00       10.00    
        10.00       10.00       10.00       10.00       10.00       10.00       10.00       10.00       10.00       10.00    
  13    10.00       10.00       10.00       10.00       10.00       10.00       10.00       10.00       10.00       10.00    
        10.00       10.00       10.00       10.00       10.00       10.00       10.00       10.00       10.00       10.00    
        10.00       10.00       10.00       10.00       10.00       10.00       10.00       10.00       10.00       10.00    
        10.00       10.00       10.00       10.00       10.00       10.00       10.00       10.00       10.00       10.00    
        10.00       10.00       10.00       10.00       10.00       10.00       10.00       10.00       10.00       10.00    
        10.00       10.00       10.00       10.00       10.00       10.00       10.00       10.00       10.00       10.00    
        10.00       10.00       10.00       10.00       10.00       10.00       10.00       10.00       10.00       10.00    
        10.00       10.00       10.00       10.00       10.00       10.00       10.00       10.00       10.00       10.00    
        10.00       10.00       10.00       10.00       10.00       10.00       10.00       10.00       10.00       10.00    
        10.00       10.00       10.00       10.00       10.00       10.00       10.00       10.00       10.00       10.00    
  14    10.00       10.00       10.00       10.00       10.00       10.00       10.00       10.00       10.00       10.00    
        10.00       10.00       10.00       10.00       10.00       10.00       10.00       10.00       10.00       10.00    
        10.00       10.00       10.00       10.00       10.00       10.00       10.00       10.00       10.00       10.00    
        10.00       10.00       10.00       10.00       10.00       10.00       10.00       10.00       10.00       10.00    
        10.00       10.00       10.00       10.00       10.00       10.00       10.00       10.00       10.00       10.00    
        10.00       10.00       10.00       10.00       10.00       10.00       10.00       10.00       10.00       10.00    
        10.00       10.00       10.00       10.00       10.00       10.00       10.00       10.00       10.00       10.00    
        10.00       10.00       10.00       10.00       10.00       10.00       10.00       10.00       10.00       10.00    
        10.00       10.00       10.00       10.00       10.00       10.00       10.00       10.00       10.00       10.00    
        10.00       10.00       10.00       10.00       10.00       10.00       10.00       10.00       10.00       10.00    
  15    10.00       10.00       10.00       10.00       10.00       10.00       10.00       10.00       10.00       10.00    
        10.00       10.00       10.00       10.00       10.00       10.00       10.00       10.00       10.00       10.00    
        10.00       10.00       10.00       10.00       10.00       10.00       10.00       10.00       10.00       10.00    
        10.00       10.00       10.00       10.00       10.00       10.00       10.00       10.00       10.00       10.00    
        10.00       10.00       10.00       10.00       10.00       10.00       10.00       10.00       10.00       10.00    
        10.00       10.00       10.00       10.00       10.00       10.00       10.00       10.00       10.00       10.00    
        10.00       10.00       10.00       10.00       10.00       10.00       10.00       10.00       10.00       10.00    
        10.00       10.00       10.00       10.00       10.00       10.00       10.00       10.00       10.00       10.00    
        10.00       10.00       10.00       10.00       10.00       10.00       10.00       10.00       10.00       10.00    
        10.00       10.00       10.00       10.00       10.00       10.00       10.00       10.00       10.00       10.00    
  16    10.00       10.00       10.00       10.00       10.00       10.00       10.00       10.00       10.00       10.00    
        10.00       10.00       10.00       10.00       10.00       10.00       10.00       10.00       10.00       10.00    
        10.00       10.00       10.00       10.00       10.00       10.00       10.00       10.00       10.00       10.00    
        10.00       10.00       10.00       10.00       10.00       10.00       10.00       10.00       10.00       10.00    
        10.00       10.00       10.00       10.00       10.00       10.00       10.00       10.00       10.00       10.00    
        10.00       10.00       10.00       10.00       10.00       10.00       10.00       10.00       10.00       10.00    
        10.00       10.00       10.00       10.00       10.00       10.00       10.00       10.00       10.00       10.00    
        10.00       10.00       10.00       10.00       10.00       10.00       10.00       10.00       10.00       10.00    
        10.00       10.00       10.00       10.00       10.00       10.00       10.00       10.00       10.00       10.00    
        10.00       10.00       10.00       10.00       10.00       10.00       10.00       10.00       10.00       10.00    
  17    10.00       10.00       10.00       10.00       10.00       10.00       10.00       10.00       10.00       10.00    
        10.00       10.00       10.00       10.00       10.00       10.00       10.00       10.00       10.00       10.00    
        10.00       10.00       10.00       10.00       10.00       10.00       10.00       10.00       10.00       10.00    
        10.00       10.00       10.00       10.00       10.00       10.00       10.00       10.00       10.00       10.00    
        10.00       10.00       10.00       10.00       10.00       10.00       10.00       10.00       10.00       10.00    
        10.00       10.00       10.00       10.00       10.00       10.00       10.00       10.00       10.00       10.00    
        10.00       10.00       10.00       10.00       10.00       10.00       10.00       10.00       10.00       10.00    
        10.00       10.00       10.00       10.00       10.00       10.00       10.00       10.00       10.00       10.00    
        10.00       10.00       10.00       10.00       10.00       10.00       10.00       10.00       10.00       10.00    
        10.00       10.00       10.00       10.00       10.00       10.00       10.00       10.00       10.00       10.00    
  18    10.00       10.00       10.00       10.00       10.00       10.00       10.00       10.00       10.00       10.00    
        10.00       10.00       10.00       10.00       10.00       10.00       10.00       10.00       10.00       10.00    
        10.00       10.00       10.00       10.00       10.00       10.00       10.00       10.00       10.00       10.00    
        10.00       10.00       10.00       10.00       10.00       10.00       10.00       10.00       10.00       10.00    
        10.00       10.00       10.00       10.00       10.00       10.00       10.00       10.00       10.00       10.00    
        10.00       10.00       10.00       10.00       10.00       10.00       10.00       10.00       10.00       10.00    
        10.00       10.00       10.00       10.00       10.00       10.00       10.00       10.00       10.00       10.00    
        10.00       10.00       10.00       10.00       10.00       10.00       10.00       10.00       10.00       10.00    
        10.00       10.00       10.00       10.00       10.00       10.00       10.00       10.00       10.00       10.00    
        10.00       10.00       10.00       10.00       10.00       10.00       10.00       10.00       10.00       10.00    
  19    10.00       10.00       10.00       10.00       10.00       10.00       10.00       10.00       10.00       10.00    
        10.00       10.00       10.00       10.00       10.00       10.00       10.00       10.00       10.00       10.00    
        10.00       10.00       10.00       10.00       10.00       10.00       10.00       10.00       10.00       10.00    
        10.00       10.00       10.00       10.00       10.00       10.00       10.00       10.00       10.00       10.00    
        10.00       10.00       10.00       10.00       10.00       10.00       10.00       10.00       10.00       10.00    
        10.00       10.00       10.00       10.00       10.00       10.00       10.00       10.00       10.00       10.00    
        10.00       10.00       10.00       10.00       10.00       10.00       10.00       10.00       10.00       10.00    
        10.00       10.00       10.00       10.00       10.00       10.00       10.00       10.00       10.00       10.00    
        10.00       10.00       10.00       10.00       10.00       10.00       10.00       10.00       10.00       10.00    
        10.00       10.00       10.00       10.00       10.00       10.00       10.00       10.00       10.00       10.00    
  20    10.00       10.00       10.00       10.00       10.00       10.00       10.00       10.00       10.00       10.00    
        10.00       10.00       10.00       10.00       10.00       10.00       10.00       10.00       10.00       10.00    
        10.00       10.00       10.00       10.00       10.00       10.00       10.00       10.00       10.00       10.00    
        10.00       10.00       10.00       10.00       10.00       10.00       10.00       10.00       10.00       10.00    
        10.00       10.00       10.00       10.00       10.00       10.00       10.00       10.00       10.00       10.00    
        10.00       10.00       10.00       10.00       10.00       10.00       10.00       10.00       10.00       10.00    
        10.00       10.00       10.00       10.00       10.00       10.00       10.00       10.00       10.00       10.00    
        10.00       10.00       10.00       10.00       10.00       10.00       10.00       10.00       10.00       10.00    
        10.00       10.00       10.00       10.00       10.00       10.00       10.00       10.00       10.00       10.00    
        10.00       10.00       10.00       10.00       10.00       10.00       10.00       10.00       10.00       10.00    
  21    10.00       10.00       10.00       10.00       10.00       10.00       10.00       10.00       10.00       10.00    
        10.00       10.00       10.00       10.00       10.00       10.00       10.00       10.00       10.00       10.00    
        10.00       10.00       10.00       10.00       10.00       10.00       10.00       10.00       10.00       10.00    
        10.00       10.00       10.00       10.00       10.00       10.00       10.00       10.00       10.00       10.00    
        10.00       10.00       10.00       10.00       10.00       10.00       10.00       10.00       10.00       10.00    
        10.00       10.00       10.00       10.00       10.00       10.00       10.00       10.00       10.00       10.00    
        10.00       10.00       10.00       10.00       10.00       10.00       10.00       10.00       10.00       10.00    
        10.00       10.00       10.00       10.00       10.00       10.00       10.00       10.00       10.00       10.00    
        10.00       10.00       10.00       10.00       10.00       10.00       10.00       10.00       10.00       10.00    
        10.00       10.00       10.00       10.00       10.00       10.00       10.00       10.00       10.00       10.00    
  22    10.00       10.00       10.00       10.00       10.00       10.00       10.00       10.00       10.00       10.00    
        10.00       10.00       10.00       10.00       10.00       10.00       10.00       10.00       10.00       10.00    
        10.00       10.00       10.00       10.00       10.00       10.00       10.00       10.00       10.00       10.00    
        10.00       10.00       10.00       10.00       10.00       10.00       10.00       10.00       10.00       10.00    
        10.00       10.00       10.00       10.00       10.00       10.00       10.00       10.00       10.00       10.00    
        10.00       10.00       10.00       10.00       10.00       10.00       10.00       10.00       10.00       10.00    
        10.00       10.00       10.00       10.00       10.00       10.00       10.00       10.00       10.00       10.00    
        10.00       10.00       10.00       10.00       10.00       10.00       10.00       10.00       10.00       10.00    
        10.00       10.00       10.00       10.00       10.00       10.00       10.00       10.00       10.00       10.00    
        10.00       10.00       10.00       10.00       10.00       10.00       10.00       10.00       10.00       10.00    
  23    10.00       10.00       10.00       10.00       10.00       10.00       10.00       10.00       10.00       10.00    
        10.00       10.00       10.00       10.00       10.00       10.00       10.00       10.00       10.00       10.00    
        10.00       10.00       10.00       10.00       10.00       10.00       10.00       10.00       10.00       10.00    
        10.00       10.00       10.00       10.00       10.00       10.00       10.00       10.00       10.00       10.00    
        10.00       10.00       10.00       10.00       10.00       10.00       10.00       10.00       10.00       10.00    
        10.00       10.00       10.00       10.00       10.00       10.00       10.00       10.00       10.00       10.00    
        10.00       10.00       10.00       10.00       10.00       10.00       10.00       10.00       10.00       10.00    
        10.00       10.00       10.00       10.00       10.00       10.00       10.00       10.00       10.00       10.00    
        10.00       10.00       10.00       10.00       10.00       10.00       10.00       10.00       10.00       10.00    
        10.00       10.00       10.00       10.00       10.00       10.00       10.00       10.00       10.00       10.00    
  24    10.00       10.00       10.00       10.00       10.00       10.00       10.00       10.00       10.00       10.00    
        10.00       10.00       10.00       10.00       10.00       10.00       10.00       10.00       10.00       10.00    
        10.00       10.00       10.00       10.00       10.00       10.00       10.00       10.00       10.00       10.00    
        10.00       10.00       10.00       10.00       10.00       10.00       10.00       10.00       10.00       10.00    
        10.00       10.00       10.00       10.00       10.00       10.00       10.00       10.00       10.00       10.00    
        10.00       10.00       10.00       10.00       10.00       10.00       10.00       10.00       10.00       10.00    
        10.00       10.00       10.00       10.00       10.00       10.00       10.00       10.00       10.00       10.00    
        10.00       10.00       10.00       10.00       10.00       10.00       10.00       10.00       10.00       10.00    
        10.00       10.00       10.00       10.00       10.00       10.00       10.00       10.00       10.00       10.00    
        10.00       10.00       10.00       10.00       10.00       10.00       10.00       10.00       10.00       10.00    
  25    10.00       10.00       10.00       10.00       10.00       10.00       10.00       10.00       10.00       10.00    
        10.00       10.00       10.00       10.00       10.00       10.00       10.00       10.00       10.00       10.00    
        10.00       10.00       10.00       10.00       10.00       10.00       10.00       10.00       10.00       10.00    
        10.00       10.00       10.00       10.00       10.00       10.00       10.00       10.00       10.00       10.00    
        10.00       10.00       10.00       10.00       10.00       10.00       10.00       10.00       10.00       10.00    
        10.00       10.00       10.00       10.00       10.00       10.00       10.00       10.00       10.00       10.00    
        10.00       10.00       10.00       10.00       10.00       10.00       10.00       10.00       10.00       10.00    
        10.00       10.00       10.00       10.00       10.00       10.00       10.00       10.00       10.00       10.00    
        10.00       10.00       10.00       10.00       10.00       10.00       10.00       10.00       10.00       10.00    
        10.00       10.00       10.00       10.00       10.00       10.00       10.00       10.00       10.00       10.00    
  26    10.00       10.00       10.00       10.00       10.00       10.00       10.00       10.00       10.00       10.00    
        10.00       10.00       10.00       10.00       10.00       10.00       10.00       10.00       10.00       10.00    
        10.00       10.00       10.00       10.00       10.00       10.00       10.00       10.00       10.00       10.00    
        10.00       10.00       10.00       10.00       10.00       10.00       10.00       10.00       10.00       10.00    
        10.00       10.00       10.00       10.00       10.00       10.00       10.00       10.00       10.00       10.00    
        10.00       10.00       10.00       10.00       10.00       10.00       10.00       10.00       10.00       10.00    
        10.00       10.00       10.00       10.00       10.00       10.00       10.00       10.00       10.00       10.00    
        10.00       10.00       10.00       10.00       10.00       10.00       10.00       10.00       10.00       10.00    
        10.00       10.00       10.00       10.00       10.00       10.00       10.00       10.00       10.00       10.00    
        10.00       10.00       10.00       10.00       10.00       10.00       10.00       10.00       10.00       10.00    
  27    10.00       10.00       10.00       10.00       10.00       10.00       10.00       10.00       10.00       10.00    
        10.00       10.00       10.00       10.00       10.00       10.00       10.00       10.00       10.00       10.00    
        10.00       10.00       10.00       10.00       10.00       10.00       10.00       10.00       10.00       10.00    
        10.00       10.00       10.00       10.00       10.00       10.00       10.00       10.00       10.00       10.00    
        10.00       10.00       10.00       10.00       10.00       10.00       10.00       10.00       10.00       10.00    
        10.00       10.00       10.00       10.00       10.00       10.00       10.00       10.00       10.00       10.00    
        10.00       10.00       10.00       10.00       10.00       10.00       10.00       10.00       10.00       10.00    
        10.00       10.00       10.00       10.00       10.00       10.00       10.00       10.00       10.00       10.00    
        10.00       10.00       10.00       10.00       10.00       10.00       10.00       10.00       10.00       10.00    
        10.00       10.00       10.00       10.00       10.00       10.00       10.00       10.00       10.00       10.00    
  28    10.00       10.00       10.00       10.00       10.00       10.00       10.00       10.00       10.00       10.00    
        10.00       10.00       10.00       10.00       10.00       10.00       10.00       10.00       10.00       10.00    
        10.00       10.00       10.00       10.00       10.00       10.00       10.00       10.00       10.00       10.00    
        10.00       10.00       10.00       10.00       10.00       10.00       10.00       10.00       10.00       10.00    
        10.00       10.00       10.00       10.00       10.00       10.00       10.00       10.00       10.00       10.00    
        10.00       10.00       10.00       10.00       10.00       10.00       10.00       10.00       10.00       10.00    
        10.00       10.00       10.00       10.00       10.00       10.00       10.00       10.00       10.00       10.00    
        10.00       10.00       10.00       10.00       10.00       10.00       10.00       10.00       10.00       10.00    
        10.00       10.00       10.00       10.00       10.00       10.00       10.00       10.00       10.00       10.00    
        10.00       10.00       10.00       10.00       10.00       10.00       10.00       10.00       10.00       10.00    
  29    10.00       10.00       10.00       10.00       10.00       10.00       10.00       10.00       10.00       10.00    
        10.00       10.00       10.00       10.00       10.00       10.00       10.00       10.00       10.00       10.00    
        10.00       10.00       10.00       10.00       10.00       10.00       10.00       10.00       10.00       10.00    
        10.00       10.00       10.00       10.00       10.00       10.00       10.00       10.00       10.00       10.00    
        10.00       10.00       10.00       10.00       10.00       10.00       10.00       10.00       10.00       10.00    
        10.00       10.00       10.00       10.00       10.00       10.00       10.00       10.00       10.00       10.00    
        10.00       10.00       10.00       10.00       10.00       10.00       10.00       10.00       10.00       10.00    
        10.00       10.00       10.00       10.00       10.00       10.00       10.00       10.00       10.00       10.00    
        10.00       10.00       10.00       10.00       10.00       10.00       10.00       10.00       10.00       10.00    
        10.00       10.00       10.00       10.00       10.00       10.00       10.00       10.00       10.00       10.00    
  30    10.00       10.00       10.00       10.00       10.00       10.00       10.00       10.00       10.00       10.00    
        10.00       10.00       10.00       10.00       10.00       10.00       10.00       10.00       10.00       10.00    
        10.00       10.00       10.00       10.00       10.00       10.00       10.00       10.00       10.00       10.00    
        10.00       10.00       10.00       10.00       10.00       10.00       10.00       10.00       10.00       10.00    
        10.00       10.00       10.00       10.00       10.00       10.00       10.00       10.00       10.00       10.00    
        10.00       10.00       10.00       10.00       10.00       10.00       10.00       10.00       10.00       10.00    
        10.00       10.00       10.00       10.00       10.00       10.00       10.00       10.00       10.00       10.00    
        10.00       10.00       10.00       10.00       10.00       10.00       10.00       10.00       10.00       10.00    
        10.00       10.00       10.00       10.00       10.00       10.00       10.00       10.00       10.00       10.00    
        10.00       10.00       10.00       10.00       10.00       10.00       10.00       10.00       10.00       10.00    
  31    10.00       10.00       10.00       10.00       10.00       10.00       10.00       10.00       10.00       10.00    
        10.00       10.00       10.00       10.00       10.00       10.00       10.00       10.00       10.00       10.00    
        10.00       10.00       10.00       10.00       10.00       10.00       10.00       10.00       10.00       10.00    
        10.00       10.00       10.00       10.00       10.00       10.00       10.00       10.00       10.00       10.00    
        10.00       10.00       10.00       10.00       10.00       10.00       10.00       10.00       10.00       10.00    
        10.00       10.00       10.00       10.00       10.00       10.00       10.00       10.00       10.00       10.00    
        10.00       10.00       10.00       10.00       10.00       10.00       10.00       10.00       10.00       10.00    
        10.00       10.00       10.00       10.00       10.00       10.00       10.00       10.00       10.00       10.00    
        10.00       10.00       10.00       10.00       10.00       10.00       10.00       10.00       10.00       10.00    
        10.00       10.00       10.00       10.00       10.00       10.00       10.00       10.00       10.00       10.00    
  32    10.00       10.00       10.00       10.00       10.00       10.00       10.00       10.00       10.00       10.00    
        10.00       10.00       10.00       10.00       10.00       10.00       10.00       10.00       10.00       10.00    
        10.00       10.00       10.00       10.00       10.00       10.00       10.00       10.00       10.00       10.00    
        10.00       10.00       10.00       10.00       10.00       10.00       10.00       10.00       10.00       10.00    
        10.00       10.00       10.00       10.00       10.00       10.00       10.00       10.00       10.00       10.00    
        10.00       10.00       10.00       10.00       10.00       10.00       10.00       10.00       10.00       10.00    
        10.00       10.00       10.00       10.00       10.00       10.00       10.00       10.00       10.00       10.00    
        10.00       10.00       10.00       10.00       10.00       10.00       10.00       10.00       10.00       10.00    
        10.00       10.00       10.00       10.00       10.00       10.00       10.00       10.00       10.00       10.00    
        10.00       10.00       10.00       10.00       10.00       10.00       10.00       10.00       10.00       10.00    
  33    10.00       10.00       10.00       10.00       10.00       10.00       10.00       10.00       10.00       10.00    
        10.00       10.00       10.00       10.00       10.00       10.00       10.00       10.00       10.00       10.00    
        10.00       10.00       10.00       10.00       10.00       10.00       10.00       10.00       10.00       10.00    
        10.00       10.00       10.00       10.00       10.00       10.00       10.00       10.00       10.00       10.00    
        10.00       10.00       10.00       10.00       10.00       10.00       10.00       10.00       10.00       10.00    
        10.00       10.00       10.00       10.00       10.00       10.00       10.00       10.00       10.00       10.00    
        10.00       10.00       10.00       10.00       10.00       10.00       10.00       10.00       10.00       10.00    
        10.00       10.00       10.00       10.00       10.00       10.00       10.00       10.00       10.00       10.00    
        10.00       10.00       10.00       10.00       10.00       10.00       10.00       10.00       10.00       10.00    
        10.00       10.00       10.00       10.00       10.00       10.00       10.00       10.00       10.00       10.00    
  34    10.00       10.00       10.00       10.00       10.00       10.00       10.00       10.00       10.00       10.00    
        10.00       10.00       10.00       10.00       10.00       10.00       10.00       10.00       10.00       10.00    
        10.00       10.00       10.00       10.00       10.00       10.00       10.00       10.00       10.00       10.00    
        10.00       10.00       10.00       10.00       10.00       10.00       10.00       10.00       10.00       10.00    
        10.00       10.00       10.00       10.00       10.00       10.00       10.00       10.00       10.00       10.00    
        10.00       10.00       10.00       10.00       10.00       10.00       10.00       10.00       10.00       10.00    
        10.00       10.00       10.00       10.00       10.00       10.00       10.00       10.00       10.00       10.00    
        10.00       10.00       10.00       10.00       10.00       10.00       10.00       10.00       10.00       10.00    
        10.00       10.00       10.00       10.00       10.00       10.00       10.00       10.00       10.00       10.00    
        10.00       10.00       10.00       10.00       10.00       10.00       10.00       10.00       10.00       10.00    
  35    10.00       10.00       10.00       10.00       10.00       10.00       10.00       10.00       10.00       10.00    
        10.00       10.00       10.00       10.00       10.00       10.00       10.00       10.00       10.00       10.00    
        10.00       10.00       10.00       10.00       10.00       10.00       10.00       10.00       10.00       10.00    
        10.00       10.00       10.00       10.00       10.00       10.00       10.00       10.00       10.00       10.00    
        10.00       10.00       10.00       10.00       10.00       10.00       10.00       10.00       10.00       10.00    
        10.00       10.00       10.00       10.00       10.00       10.00       10.00       10.00       10.00       10.00    
        10.00       10.00       10.00       10.00       10.00       10.00       10.00       10.00       10.00       10.00    
        10.00       10.00       10.00       10.00       10.00       10.00       10.00       10.00       10.00       10.00    
        10.00       10.00       10.00       10.00       10.00       10.00       10.00       10.00       10.00       10.00    
        10.00       10.00       10.00       10.00       10.00       10.00       10.00       10.00       10.00       10.00    
  36    10.00       10.00       10.00       10.00       10.00       10.00       10.00       10.00       10.00       10.00    
        10.00       10.00       10.00       10.00       10.00       10.00       10.00       10.00       10.00       10.00    
        10.00       10.00       10.00       10.00       10.00       10.00       10.00       10.00       10.00       10.00    
        10.00       10.00       10.00       10.00       10.00       10.00       10.00       10.00       10.00       10.00    
        10.00       10.00       10.00       10.00       10.00       10.00       10.00       10.00       10.00       10.00    
        10.00       10.00       10.00       10.00       10.00       10.00       10.00       10.00       10.00       10.00    
        10.00       10.00       10.00       10.00       10.00       10.00       10.00       10.00       10.00       10.00    
        10.00       10.00       10.00       10.00       10.00       10.00       10.00       10.00       10.00       10.00    
        10.00       10.00       10.00       10.00       10.00       10.00       10.00       10.00       10.00       10.00    
        10.00       10.00       10.00       10.00       10.00       10.00       10.00       10.00       10.00       10.00    
  37    10.00       10.00       10.00       10.00       10.00       10.00       10.00       10.00       10.00       10.00    
        10.00       10.00       10.00       10.00       10.00       10.00       10.00       10.00       10.00       10.00    
        10.00       10.00       10.00       10.00       10.00       10.00       10.00       10.00       10.00       10.00    
        10.00       10.00       10.00       10.00       10.00       10.00       10.00       10.00       10.00       10.00    
        10.00       10.00       10.00       10.00       10.00       10.00       10.00       10.00       10.00       10.00    
        10.00       10.00       10.00       10.00       10.00       10.00       10.00       10.00       10.00       10.00    
        10.00       10.00       10.00       10.00       10.00       10.00       10.00       10.00       10.00       10.00    
        10.00       10.00       10.00       10.00       10.00       10.00       10.00       10.00       10.00       10.00    
        10.00       10.00       10.00       10.00       10.00       10.00       10.00       10.00       10.00       10.00    
        10.00       10.00       10.00       10.00       10.00       10.00       10.00       10.00       10.00       10.00    
  38    10.00       10.00       10.00       10.00       10.00       10.00       10.00       10.00       10.00       10.00    
        10.00       10.00       10.00       10.00       10.00       10.00       10.00       10.00       10.00       10.00    
        10.00       10.00       10.00       10.00       10.00       10.00       10.00       10.00       10.00       10.00    
        10.00       10.00       10.00       10.00       10.00       10.00       10.00       10.00       10.00       10.00    
        10.00       10.00       10.00       10.00       10.00       10.00       10.00       10.00       10.00       10.00    
        10.00       10.00       10.00       10.00       10.00       10.00       10.00       10.00       10.00       10.00    
        10.00       10.00       10.00       10.00       10.00       10.00       10.00       10.00       10.00       10.00    
        10.00       10.00       10.00       10.00       10.00       10.00       10.00       10.00       10.00       10.00    
        10.00       10.00       10.00       10.00       10.00       10.00       10.00       10.00       10.00       10.00    
        10.00       10.00       10.00       10.00       10.00       10.00       10.00       10.00       10.00       10.00    
  39    10.00       10.00       10.00       10.00       10.00       10.00       10.00       10.00       10.00       10.00    
        10.00       10.00       10.00       10.00       10.00       10.00       10.00       10.00       10.00       10.00    
        10.00       10.00       10.00       10.00       10.00       10.00       10.00       10.00       10.00       10.00    
        10.00       10.00       10.00       10.00       10.00       10.00       10.00       10.00       10.00       10.00    
        10.00       10.00       10.00       10.00       10.00       10.00       10.00       10.00       10.00       10.00    
        10.00       10.00       10.00       10.00       10.00       10.00       10.00       10.00       10.00       10.00    
        10.00       10.00       10.00       10.00       10.00       10.00       10.00       10.00       10.00       10.00    
        10.00       10.00       10.00       10.00       10.00       10.00       10.00       10.00       10.00       10.00    
        10.00       10.00       10.00       10.00       10.00       10.00       10.00       10.00       10.00       10.00    
        10.00       10.00       10.00       10.00       10.00       10.00       10.00       10.00       10.00       10.00    
  40    10.00       10.00       10.00       10.00       10.00       10.00       10.00       10.00       10.00       10.00    
        10.00       10.00       10.00       10.00       10.00       10.00       10.00       10.00       10.00       10.00    
        10.00       10.00       10.00       10.00       10.00       10.00       10.00       10.00       10.00       10.00    
        10.00       10.00       10.00       10.00       10.00       10.00       10.00       10.00       10.00       10.00    
        10.00       10.00       10.00       10.00       10.00       10.00       10.00       10.00       10.00       10.00    
        10.00       10.00       10.00       10.00       10.00       10.00       10.00       10.00       10.00       10.00    
        10.00       10.00       10.00       10.00       10.00       10.00       10.00       10.00       10.00       10.00    
        10.00       10.00       10.00       10.00       10.00       10.00       10.00       10.00       10.00       10.00    
        10.00       10.00       10.00       10.00       10.00       10.00       10.00       10.00       10.00       10.00    
        10.00       10.00       10.00       10.00       10.00       10.00       10.00       10.00       10.00       10.00    
  41    10.00       10.00       10.00       10.00       10.00       10.00       10.00       10.00       10.00       10.00    
        10.00       10.00       10.00       10.00       10.00       10.00       10.00       10.00       10.00       10.00    
        10.00       10.00       10.00       10.00       10.00       10.00       10.00       10.00       10.00       10.00    
        10.00       10.00       10.00       10.00       10.00       10.00       10.00       10.00       10.00       10.00    
        10.00       10.00       10.00       10.00       10.00       10.00       10.00       10.00       10.00       10.00    
        10.00       10.00       10.00       10.00       10.00       10.00       10.00       10.00       10.00       10.00    
        10.00       10.00       10.00       10.00       10.00       10.00       10.00       10.00       10.00       10.00    
        10.00       10.00       10.00       10.00       10.00       10.00       10.00       10.00       10.00       10.00    
        10.00       10.00       10.00       10.00       10.00       10.00       10.00       10.00       10.00       10.00    
        10.00       10.00       10.00       10.00       10.00       10.00       10.00       10.00       10.00       10.00    
  42    10.00       10.00       10.00       10.00       10.00       10.00       10.00       10.00       10.00       10.00    
        10.00       10.00       10.00       10.00       10.00       10.00       10.00       10.00       10.00       10.00    
        10.00       10.00       10.00       10.00       10.00       10.00       10.00       10.00       10.00       10.00    
        10.00       10.00       10.00       10.00       10.00       10.00       10.00       10.00       10.00       10.00    
        10.00       10.00       10.00       10.00       10.00       10.00       10.00       10.00       10.00       10.00    
        10.00       10.00       10.00       10.00       10.00       10.00       10.00       10.00       10.00       10.00    
        10.00       10.00       10.00       10.00       10.00       10.00       10.00       10.00       10.00       10.00    
        10.00       10.00       10.00       10.00       10.00       10.00       10.00       10.00       10.00       10.00    
        10.00       10.00       10.00       10.00       10.00       10.00       10.00       10.00       10.00       10.00    
        10.00       10.00       10.00       10.00       10.00       10.00       10.00       10.00       10.00       10.00    
  43    10.00       10.00       10.00       10.00       10.00       10.00       10.00       10.00       10.00       10.00    
        10.00       10.00       10.00       10.00       10.00       10.00       10.00       10.00       10.00       10.00    
        10.00       10.00       10.00       10.00       10.00       10.00       10.00       10.00       10.00       10.00    
        10.00       10.00       10.00       10.00       10.00       10.00       10.00       10.00       10.00       10.00    
        10.00       10.00       10.00       10.00       10.00       10.00       10.00       10.00       10.00       10.00    
        10.00       10.00       10.00       10.00       10.00       10.00       10.00       10.00       10.00       10.00    
        10.00       10.00       10.00       10.00       10.00       10.00       10.00       10.00       10.00       10.00    
        10.00       10.00       10.00       10.00       10.00       10.00       10.00       10.00       10.00       10.00    
        10.00       10.00       10.00       10.00       10.00       10.00       10.00       10.00       10.00       10.00    
        10.00       10.00       10.00       10.00       10.00       10.00       10.00       10.00       10.00       10.00    
  44    10.00       10.00       10.00       10.00       10.00       10.00       10.00       10.00       10.00       10.00    
        10.00       10.00       10.00       10.00       10.00       10.00       10.00       10.00       10.00       10.00    
        10.00       10.00       10.00       10.00       10.00       10.00       10.00       10.00       10.00       10.00    
        10.00       10.00       10.00       10.00       10.00       10.00       10.00       10.00       10.00       10.00    
        10.00       10.00       10.00       10.00       10.00       10.00       10.00       10.00       10.00       10.00    
        10.00       10.00       10.00       10.00       10.00       10.00       10.00       10.00       10.00       10.00    
        10.00       10.00       10.00       10.00       10.00       10.00       10.00       10.00       10.00       10.00    
        10.00       10.00       10.00       10.00       10.00       10.00       10.00       10.00       10.00       10.00    
        10.00       10.00       10.00       10.00       10.00       10.00       10.00       10.00       10.00       10.00    
        10.00       10.00       10.00       10.00       10.00       10.00       10.00       10.00       10.00       10.00    
  45    10.00       10.00       10.00       10.00       10.00       10.00       10.00       10.00       10.00       10.00    
        10.00       10.00       10.00       10.00       10.00       10.00       10.00       10.00       10.00       10.00    
        10.00       10.00       10.00       10.00       10.00       10.00       10.00       10.00       10.00       10.00    
        10.00       10.00       10.00       10.00       10.00       10.00       10.00       10.00       10.00       10.00    
        10.00       10.00       10.00       10.00       10.00       10.00       10.00       10.00       10.00       10.00    
        10.00       10.00       10.00       10.00       10.00       10.00       10.00       10.00       10.00       10.00    
        10.00       10.00       10.00       10.00       10.00       10.00       10.00       10.00       10.00       10.00    
        10.00       10.00       10.00       10.00       10.00       10.00       10.00       10.00       10.00       10.00    
        10.00       10.00       10.00       10.00       10.00       10.00       10.00       10.00       10.00       10.00    
        10.00       10.00       10.00       10.00       10.00       10.00       10.00       10.00       10.00       10.00    
  46    10.00       10.00       10.00       10.00       10.00       10.00       10.00       10.00       10.00       10.00    
        10.00       10.00       10.00       10.00       10.00       10.00       10.00       10.00       10.00       10.00    
        10.00       10.00       10.00       10.00       10.00       10.00       10.00       10.00       10.00       10.00    
        10.00       10.00       10.00       10.00       10.00       10.00       10.00       10.00       10.00       10.00    
        10.00       10.00       10.00       10.00       10.00       10.00       10.00       10.00       10.00       10.00    
        10.00       10.00       10.00       10.00       10.00       10.00       10.00       10.00       10.00       10.00    
        10.00       10.00       10.00       10.00       10.00       10.00       10.00       10.00       10.00       10.00    
        10.00       10.00       10.00       10.00       10.00       10.00       10.00       10.00       10.00       10.00    
        10.00       10.00       10.00       10.00       10.00       10.00       10.00       10.00       10.00       10.00    
        10.00       10.00       10.00       10.00       10.00       10.00       10.00       10.00       10.00       10.00    
  47    10.00       10.00       10.00       10.00       10.00       10.00       10.00       10.00       10.00       10.00    
        10.00       10.00       10.00       10.00       10.00       10.00       10.00       10.00       10.00       10.00    
        10.00       10.00       10.00       10.00       10.00       10.00       10.00       10.00       10.00       10.00    
        10.00       10.00       10.00       10.00       10.00       10.00       10.00       10.00       10.00       10.00    
        10.00       10.00       10.00       10.00       10.00       10.00       10.00       10.00       10.00       10.00    
        10.00       10.00       10.00       10.00       10.00       10.00       10.00       10.00       10.00       10.00    
        10.00       10.00       10.00       10.00       10.00       10.00       10.00       10.00       10.00       10.00    
        10.00       10.00       10.00       10.00       10.00       10.00       10.00       10.00       10.00       10.00    
        10.00       10.00       10.00       10.00       10.00       10.00       10.00       10.00       10.00       10.00    
        10.00       10.00       10.00       10.00       10.00       10.00       10.00       10.00       10.00       10.00    
  48    10.00       10.00       10.00       10.00       10.00       10.00       10.00       10.00       10.00       10.00    
        10.00       10.00       10.00       10.00       10.00       10.00       10.00       10.00       10.00       10.00    
        10.00       10.00       10.00       10.00       10.00       10.00       10.00       10.00       10.00       10.00    
        10.00       10.00       10.00       10.00       10.00       10.00       10.00       10.00       10.00       10.00    
        10.00       10.00       10.00       10.00       10.00       10.00       10.00       10.00       10.00       10.00    
        10.00       10.00       10.00       10.00       10.00       10.00       10.00       10.00       10.00       10.00    
        10.00       10.00       10.00       10.00       10.00       10.00       10.00       10.00       10.00       10.00    
        10.00       10.00       10.00       10.00       10.00       10.00       10.00       10.00       10.00       10.00    
        10.00       10.00       10.00       10.00       10.00       10.00       10.00       10.00       10.00       10.00    
        10.00       10.00       10.00       10.00       10.00       10.00       10.00       10.00       10.00       10.00    
  49    10.00       10.00       10.00       10.00       10.00       10.00       10.00       10.00       10.00       10.00    
        10.00       10.00       10.00       10.00       10.00       10.00       10.00       10.00       10.00       10.00    
        10.00       10.00       10.00       10.00       10.00       10.00       10.00       10.00       10.00       10.00    
        10.00       10.00       10.00       10.00       10.00       10.00       10.00       10.00       10.00       10.00    
        10.00       10.00       10.00       10.00       10.00       10.00       10.00       10.00       10.00       10.00    
        10.00       10.00       10.00       10.00       10.00       10.00       10.00       10.00       10.00       10.00    
        10.00       10.00       10.00       10.00       10.00       10.00       10.00       10.00       10.00       10.00    
        10.00       10.00       10.00       10.00       10.00       10.00       10.00       10.00       10.00       10.00    
        10.00       10.00       10.00       10.00       10.00       10.00       10.00       10.00       10.00       10.00    
        10.00       10.00       10.00       10.00       10.00       10.00       10.00       10.00       10.00       10.00    
  50    10.00       10.00       10.00       10.00       10.00       10.00       10.00       10.00       10.00       10.00    
        10.00       10.00       10.00       10.00       10.00       10.00       10.00       10.00       10.00       10.00    
        10.00       10.00       10.00       10.00       10.00       10.00       10.00       10.00       10.00       10.00    
        10.00       10.00       10.00       10.00       10.00       10.00       10.00       10.00       10.00       10.00    
        10.00       10.00       10.00       10.00       10.00       10.00       10.00       10.00       10.00       10.00    
        10.00       10.00       10.00       10.00       10.00       10.00       10.00       10.00       10.00       10.00    
        10.00       10.00       10.00       10.00       10.00       10.00       10.00       10.00       10.00       10.00    
        10.00       10.00       10.00       10.00       10.00       10.00       10.00       10.00       10.00       10.00    
        10.00       10.00       10.00       10.00       10.00       10.00       10.00       10.00       10.00       10.00    
        10.00       10.00       10.00       10.00       10.00       10.00       10.00       10.00       10.00       10.00    
  51    10.00       10.00       10.00       10.00       10.00       10.00       10.00       10.00       10.00       10.00    
        10.00       10.00       10.00       10.00       10.00       10.00       10.00       10.00       10.00       10.00    
        10.00       10.00       10.00       10.00       10.00       10.00       10.00       10.00       10.00       10.00    
        10.00       10.00       10.00       10.00       10.00       10.00       10.00       10.00       10.00       10.00    
        10.00       10.00       10.00       10.00       10.00       10.00       10.00       10.00       10.00       10.00    
        10.00       10.00       10.00       10.00       10.00       10.00       10.00       10.00       10.00       10.00    
        10.00       10.00       10.00       10.00       10.00       10.00       10.00       10.00       10.00       10.00    
        10.00       10.00       10.00       10.00       10.00       10.00       10.00       10.00       10.00       10.00    
        10.00       10.00       10.00       10.00       10.00       10.00       10.00       10.00       10.00       10.00    
        10.00       10.00       10.00       10.00       10.00       10.00       10.00       10.00       10.00       10.00    
  52    10.00       10.00       10.00       10.00       10.00       10.00       10.00       10.00       10.00       10.00    
        10.00       10.00       10.00       10.00       10.00       10.00       10.00       10.00       10.00       10.00    
        10.00       10.00       10.00       10.00       10.00       10.00       10.00       10.00       10.00       10.00    
        10.00       10.00       10.00       10.00       10.00       10.00       10.00       10.00       10.00       10.00    
        10.00       10.00       10.00       10.00       10.00       10.00       10.00       10.00       10.00       10.00    
        10.00       10.00       10.00       10.00       10.00       10.00       10.00       10.00       10.00       10.00    
        10.00       10.00       10.00       10.00       10.00       10.00       10.00       10.00       10.00       10.00    
        10.00       10.00       10.00       10.00       10.00       10.00       10.00       10.00       10.00       10.00    
        10.00       10.00       10.00       10.00       10.00       10.00       10.00       10.00       10.00       10.00    
        10.00       10.00       10.00       10.00       10.00       10.00       10.00       10.00       10.00       10.00    
  53    10.00       10.00       10.00       10.00       10.00       10.00       10.00       10.00       10.00       10.00    
        10.00       10.00       10.00       10.00       10.00       10.00       10.00       10.00       10.00       10.00    
        10.00       10.00       10.00       10.00       10.00       10.00       10.00       10.00       10.00       10.00    
        10.00       10.00       10.00       10.00       10.00       10.00       10.00       10.00       10.00       10.00    
        10.00       10.00       10.00       10.00       10.00       10.00       10.00       10.00       10.00       10.00    
        10.00       10.00       10.00       10.00       10.00       10.00       10.00       10.00       10.00       10.00    
        10.00       10.00       10.00       10.00       10.00       10.00       10.00       10.00       10.00       10.00    
        10.00       10.00       10.00       10.00       10.00       10.00       10.00       10.00       10.00       10.00    
        10.00       10.00       10.00       10.00       10.00       10.00       10.00       10.00       10.00       10.00    
        10.00       10.00       10.00       10.00       10.00       10.00       10.00       10.00       10.00       10.00    
  54    10.00       10.00       10.00       10.00       10.00       10.00       10.00       10.00       10.00       10.00    
        10.00       10.00       10.00       10.00       10.00       10.00       10.00       10.00       10.00       10.00    
        10.00       10.00       10.00       10.00       10.00       10.00       10.00       10.00       10.00       10.00    
        10.00       10.00       10.00       10.00       10.00       10.00       10.00       10.00       10.00       10.00    
        10.00       10.00       10.00       10.00       10.00       10.00       10.00       10.00       10.00       10.00    
        10.00       10.00       10.00       10.00       10.00       10.00       10.00       10.00       10.00       10.00    
        10.00       10.00       10.00       10.00       10.00       10.00       10.00       10.00       10.00       10.00    
        10.00       10.00       10.00       10.00       10.00       10.00       10.00       10.00       10.00       10.00    
        10.00       10.00       10.00       10.00       10.00       10.00       10.00       10.00       10.00       10.00    
        10.00       10.00       10.00       10.00       10.00       10.00       10.00       10.00       10.00       10.00    
  55    10.00       10.00       10.00       10.00       10.00       10.00       10.00       10.00       10.00       10.00    
        10.00       10.00       10.00       10.00       10.00       10.00       10.00       10.00       10.00       10.00    
        10.00       10.00       10.00       10.00       10.00       10.00       10.00       10.00       10.00       10.00    
        10.00       10.00       10.00       10.00       10.00       10.00       10.00       10.00       10.00       10.00    
        10.00       10.00       10.00       10.00       10.00       10.00       10.00       10.00       10.00       10.00    
        10.00       10.00       10.00       10.00       10.00       10.00       10.00       10.00       10.00       10.00    
        10.00       10.00       10.00       10.00       10.00       10.00       10.00       10.00       10.00       10.00    
        10.00       10.00       10.00       10.00       10.00       10.00       10.00       10.00       10.00       10.00    
        10.00       10.00       10.00       10.00       10.00       10.00       10.00       10.00       10.00       10.00    
        10.00       10.00       10.00       10.00       10.00       10.00       10.00       10.00       10.00       10.00    
  56    10.00       10.00       10.00       10.00       10.00       10.00       10.00       10.00       10.00       10.00    
        10.00       10.00       10.00       10.00       10.00       10.00       10.00       10.00       10.00       10.00    
        10.00       10.00       10.00       10.00       10.00       10.00       10.00       10.00       10.00       10.00    
        10.00       10.00       10.00       10.00       10.00       10.00       10.00       10.00       10.00       10.00    
        10.00       10.00       10.00       10.00       10.00       10.00       10.00       10.00       10.00       10.00    
        10.00       10.00       10.00       10.00       10.00       10.00       10.00       10.00       10.00       10.00    
        10.00       10.00       10.00       10.00       10.00       10.00       10.00       10.00       10.00       10.00    
        10.00       10.00       10.00       10.00       10.00       10.00       10.00       10.00       10.00       10.00    
        10.00       10.00       10.00       10.00       10.00       10.00       10.00       10.00       10.00       10.00    
        10.00       10.00       10.00       10.00       10.00       10.00       10.00       10.00       10.00       10.00    
  57    10.00       10.00       10.00       10.00       10.00       10.00       10.00       10.00       10.00       10.00    
        10.00       10.00       10.00       10.00       10.00       10.00       10.00       10.00       10.00       10.00    
        10.00       10.00       10.00       10.00       10.00       10.00       10.00       10.00       10.00       10.00    
        10.00       10.00       10.00       10.00       10.00       10.00       10.00       10.00       10.00       10.00    
        10.00       10.00       10.00       10.00       10.00       10.00       10.00       10.00       10.00       10.00    
        10.00       10.00       10.00       10.00       10.00       10.00       10.00       10.00       10.00       10.00    
        10.00       10.00       10.00       10.00       10.00       10.00       10.00       10.00       10.00       10.00    
        10.00       10.00       10.00       10.00       10.00       10.00       10.00       10.00       10.00       10.00    
        10.00       10.00       10.00       10.00       10.00       10.00       10.00       10.00       10.00       10.00    
        10.00       10.00       10.00       10.00       10.00       10.00       10.00       10.00       10.00       10.00    
  58    10.00       10.00       10.00       10.00       10.00       10.00       10.00       10.00       10.00       10.00    
        10.00       10.00       10.00       10.00       10.00       10.00       10.00       10.00       10.00       10.00    
        10.00       10.00       10.00       10.00       10.00       10.00       10.00       10.00       10.00       10.00    
        10.00       10.00       10.00       10.00       10.00       10.00       10.00       10.00       10.00       10.00    
        10.00       10.00       10.00       10.00       10.00       10.00       10.00       10.00       10.00       10.00    
[...]
        10.00       10.00       10.00       10.00       10.00       10.00       10.00       10.00       10.00       10.00    
        10.00       10.00       10.00       10.00       10.00       10.00       10.00       10.00       10.00       10.00    
        10.00       10.00       10.00       10.00       10.00       10.00       10.00       10.00       10.00       10.00    
  87    10.00       10.00       10.00       10.00       10.00       10.00       10.00       10.00       10.00       10.00    
        10.00       10.00       10.00       10.00       10.00       10.00       10.00       10.00       10.00       10.00    
        10.00       10.00       10.00       10.00       10.00       10.00       10.00       10.00       10.00       10.00    
        10.00       10.00       10.00       10.00       10.00       10.00       10.00       10.00       10.00       10.00    
        10.00       10.00       10.00       10.00       10.00       10.00       10.00       10.00       10.00       10.00    
        10.00       10.00       10.00       10.00       10.00       10.00       10.00       10.00       10.00       10.00    
        10.00       10.00       10.00       10.00       10.00       10.00       10.00       10.00       10.00       10.00    
        10.00       10.00       10.00       10.00       10.00       10.00       10.00       10.00       10.00       10.00    
        10.00       10.00       10.00       10.00       10.00       10.00       10.00       10.00       10.00       10.00    
        10.00       10.00       10.00       10.00       10.00       10.00       10.00       10.00       10.00       10.00    
  88    10.00       10.00       10.00       10.00       10.00       10.00       10.00       10.00       10.00       10.00    
        10.00       10.00       10.00       10.00       10.00       10.00       10.00       10.00       10.00       10.00    
        10.00       10.00       10.00       10.00       10.00       10.00       10.00       10.00       10.00       10.00    
        10.00       10.00       10.00       10.00       10.00       10.00       10.00       10.00       10.00       10.00    
        10.00       10.00       10.00       10.00       10.00       10.00       10.00       10.00       10.00       10.00    
        10.00       10.00       10.00       10.00       10.00       10.00       10.00       10.00       10.00       10.00    
        10.00       10.00       10.00       10.00       10.00       10.00       10.00       10.00       10.00       10.00    
        10.00       10.00       10.00       10.00       10.00       10.00       10.00       10.00       10.00       10.00    
        10.00       10.00       10.00       10.00       10.00       10.00       10.00       10.00       10.00       10.00    
        10.00       10.00       10.00       10.00       10.00       10.00       10.00       10.00       10.00       10.00    
  89    10.00       10.00       10.00       10.00       10.00       10.00       10.00       10.00       10.00       10.00    
        10.00       10.00       10.00       10.00       10.00       10.00       10.00       10.00       10.00       10.00    
        10.00       10.00       10.00       10.00       10.00       10.00       10.00       10.00       10.00       10.00    
        10.00       10.00       10.00       10.00       10.00       10.00       10.00       10.00       10.00       10.00    
        10.00       10.00       10.00       10.00       10.00       10.00       10.00       10.00       10.00       10.00    
        10.00       10.00       10.00       10.00       10.00       10.00       10.00       10.00       10.00       10.00    
        10.00       10.00       10.00       10.00       10.00       10.00       10.00       10.00       10.00       10.00    
        10.00       10.00       10.00       10.00       10.00       10.00       10.00       10.00       10.00       10.00    
        10.00       10.00       10.00       10.00       10.00       10.00       10.00       10.00       10.00       10.00    
        10.00       10.00       10.00       10.00       10.00       10.00       10.00       10.00       10.00       10.00    
  90    10.00       10.00       10.00       10.00       10.00       10.00       10.00       10.00       10.00       10.00    
        10.00       10.00       10.00       10.00       10.00       10.00       10.00       10.00       10.00       10.00    
        10.00       10.00       10.00       10.00       10.00       10.00       10.00       10.00       10.00       10.00    
        10.00       10.00       10.00       10.00       10.00       10.00       10.00       10.00       10.00       10.00    
        10.00       10.00       10.00       10.00       10.00       10.00       10.00       10.00       10.00       10.00    
        10.00       10.00       10.00       10.00       10.00       10.00       10.00       10.00       10.00       10.00    
        10.00       10.00       10.00       10.00       10.00       10.00       10.00       10.00       10.00       10.00    
        10.00       10.00       10.00       10.00       10.00       10.00       10.00       10.00       10.00       10.00    
        10.00       10.00       10.00       10.00       10.00       10.00       10.00       10.00       10.00       10.00    
        10.00       10.00       10.00       10.00       10.00       10.00       10.00       10.00       10.00       10.00    
  91    10.00       10.00       10.00       10.00       10.00       10.00       10.00       10.00       10.00       10.00    
        10.00       10.00       10.00       10.00       10.00       10.00       10.00       10.00       10.00       10.00    
        10.00       10.00       10.00       10.00       10.00       10.00       10.00       10.00       10.00       10.00    
        10.00       10.00       10.00       10.00       10.00       10.00       10.00       10.00       10.00       10.00    
        10.00       10.00       10.00       10.00       10.00       10.00       10.00       10.00       10.00       10.00    
        10.00       10.00       10.00       10.00       10.00       10.00       10.00       10.00       10.00       10.00    
        10.00       10.00       10.00       10.00       10.00       10.00       10.00       10.00       10.00       10.00    
        10.00       10.00       10.00       10.00       10.00       10.00       10.00       10.00       10.00       10.00    
        10.00       10.00       10.00       10.00       10.00       10.00       10.00       10.00       10.00       10.00    
        10.00       10.00       10.00       10.00       10.00       10.00       10.00       10.00       10.00       10.00    
  92    10.00       10.00       10.00       10.00       10.00       10.00       10.00       10.00       10.00       10.00    
        10.00       10.00       10.00       10.00       10.00       10.00       10.00       10.00       10.00       10.00    
        10.00       10.00       10.00       10.00       10.00       10.00       10.00       10.00       10.00       10.00    
        10.00       10.00       10.00       10.00       10.00       10.00       10.00       10.00       10.00       10.00    
        10.00       10.00       10.00       10.00       10.00       10.00       10.00       10.00       10.00       10.00    
        10.00       10.00       10.00       10.00       10.00       10.00       10.00       10.00       10.00       10.00    
        10.00       10.00       10.00       10.00       10.00       10.00       10.00       10.00       10.00       10.00    
        10.00       10.00       10.00       10.00       10.00       10.00       10.00       10.00       10.00       10.00    
        10.00       10.00       10.00       10.00       10.00       10.00       10.00       10.00       10.00       10.00    
        10.00       10.00       10.00       10.00       10.00       10.00       10.00       10.00       10.00       10.00    
  93    10.00       10.00       10.00       10.00       10.00       10.00       10.00       10.00       10.00       10.00    
        10.00       10.00       10.00       10.00       10.00       10.00       10.00       10.00       10.00       10.00    
        10.00       10.00       10.00       10.00       10.00       10.00       10.00       10.00       10.00       10.00    
        10.00       10.00       10.00       10.00       10.00       10.00       10.00       10.00       10.00       10.00    
        10.00       10.00       10.00       10.00       10.00       10.00       10.00       10.00       10.00       10.00    
        10.00       10.00       10.00       10.00       10.00       10.00       10.00       10.00       10.00       10.00    
        10.00       10.00       10.00       10.00       10.00       10.00       10.00       10.00       10.00       10.00    
        10.00       10.00       10.00       10.00       10.00       10.00       10.00       10.00       10.00       10.00    
        10.00       10.00       10.00       10.00       10.00       10.00       10.00       10.00       10.00       10.00    
        10.00       10.00       10.00       10.00       10.00       10.00       10.00       10.00       10.00       10.00    
  94    10.00       10.00       10.00       10.00       10.00       10.00       10.00       10.00       10.00       10.00    
        10.00       10.00       10.00       10.00       10.00       10.00       10.00       10.00       10.00       10.00    
        10.00       10.00       10.00       10.00       10.00       10.00       10.00       10.00       10.00       10.00    
        10.00       10.00       10.00       10.00       10.00       10.00       10.00       10.00       10.00       10.00    
        10.00       10.00       10.00       10.00       10.00       10.00       10.00       10.00       10.00       10.00    
        10.00       10.00       10.00       10.00       10.00       10.00       10.00       10.00       10.00       10.00    
        10.00       10.00       10.00       10.00       10.00       10.00       10.00       10.00       10.00       10.00    
        10.00       10.00       10.00       10.00       10.00       10.00       10.00       10.00       10.00       10.00    
        10.00       10.00       10.00       10.00       10.00       10.00       10.00       10.00       10.00       10.00    
        10.00       10.00       10.00       10.00       10.00       10.00       10.00       10.00       10.00       10.00    
  95    10.00       10.00       10.00       10.00       10.00       10.00       10.00       10.00       10.00       10.00    
        10.00       10.00       10.00       10.00       10.00       10.00       10.00       10.00       10.00       10.00    
        10.00       10.00       10.00       10.00       10.00       10.00       10.00       10.00       10.00       10.00    
        10.00       10.00       10.00       10.00       10.00       10.00       10.00       10.00       10.00       10.00    
        10.00       10.00       10.00       10.00       10.00       10.00       10.00       10.00       10.00       10.00    
        10.00       10.00       10.00       10.00       10.00       10.00       10.00       10.00       10.00       10.00    
        10.00       10.00       10.00       10.00       10.00       10.00       10.00       10.00       10.00       10.00    
        10.00       10.00       10.00       10.00       10.00       10.00       10.00       10.00       10.00       10.00    
        10.00       10.00       10.00       10.00       10.00       10.00       10.00       10.00       10.00       10.00    
        10.00       10.00       10.00       10.00       10.00       10.00       10.00       10.00       10.00       10.00    
  96    10.00       10.00       10.00       10.00       10.00       10.00       10.00       10.00       10.00       10.00    
        10.00       10.00       10.00       10.00       10.00       10.00       10.00       10.00       10.00       10.00    
        10.00       10.00       10.00       10.00       10.00       10.00       10.00       10.00       10.00       10.00    
        10.00       10.00       10.00       10.00       10.00       10.00       10.00       10.00       10.00       10.00    
        10.00       10.00       10.00       10.00       10.00       10.00       10.00       10.00       10.00       10.00    
        10.00       10.00       10.00       10.00       10.00       10.00       10.00       10.00       10.00       10.00    
        10.00       10.00       10.00       10.00       10.00       10.00       10.00       10.00       10.00       10.00    
        10.00       10.00       10.00       10.00       10.00       10.00       10.00       10.00       10.00       10.00    
        10.00       10.00       10.00       10.00       10.00       10.00       10.00       10.00       10.00       10.00    
        10.00       10.00       10.00       10.00       10.00       10.00       10.00       10.00       10.00       10.00    
  97    10.00       10.00       10.00       10.00       10.00       10.00       10.00       10.00       10.00       10.00    
        10.00       10.00       10.00       10.00       10.00       10.00       10.00       10.00       10.00       10.00    
        10.00       10.00       10.00       10.00       10.00       10.00       10.00       10.00       10.00       10.00    
        10.00       10.00       10.00       10.00       10.00       10.00       10.00       10.00       10.00       10.00    
        10.00       10.00       10.00       10.00       10.00       10.00       10.00       10.00       10.00       10.00    
        10.00       10.00       10.00       10.00       10.00       10.00       10.00       10.00       10.00       10.00    
        10.00       10.00       10.00       10.00       10.00       10.00       10.00       10.00       10.00       10.00    
        10.00       10.00       10.00       10.00       10.00       10.00       10.00       10.00       10.00       10.00    
        10.00       10.00       10.00       10.00       10.00       10.00       10.00       10.00       10.00       10.00    
        10.00       10.00       10.00       10.00       10.00       10.00       10.00       10.00       10.00       10.00    
  98    10.00       10.00       10.00       10.00       10.00       10.00       10.00       10.00       10.00       10.00    
        10.00       10.00       10.00       10.00       10.00       10.00       10.00       10.00       10.00       10.00    
        10.00       10.00       10.00       10.00       10.00       10.00       10.00       10.00       10.00       10.00    
        10.00       10.00       10.00       10.00       10.00       10.00       10.00       10.00       10.00       10.00    
        10.00       10.00       10.00       10.00       10.00       10.00       10.00       10.00       10.00       10.00    
        10.00       10.00       10.00       10.00       10.00       10.00       10.00       10.00       10.00       10.00    
        10.00       10.00       10.00       10.00       10.00       10.00       10.00       10.00       10.00       10.00    
        10.00       10.00       10.00       10.00       10.00       10.00       10.00       10.00       10.00       10.00    
        10.00       10.00       10.00       10.00       10.00       10.00       10.00       10.00       10.00       10.00    
        10.00       10.00       10.00       10.00       10.00       10.00       10.00       10.00       10.00       10.00    
  99    10.00       10.00       10.00       10.00       10.00       10.00       10.00       10.00       10.00       10.00    
        10.00       10.00       10.00       10.00       10.00       10.00       10.00       10.00       10.00       10.00    
        10.00       10.00       10.00       10.00       10.00       10.00       10.00       10.00       10.00       10.00    
        10.00       10.00       10.00       10.00       10.00       10.00       10.00       10.00       10.00       10.00    
        10.00       10.00       10.00       10.00       10.00       10.00       10.00       10.00       10.00       10.00    
        10.00       10.00       10.00       10.00       10.00       10.00       10.00       10.00       10.00       10.00    
        10.00       10.00       10.00       10.00       10.00       10.00       10.00       10.00       10.00       10.00    
        10.00       10.00       10.00       10.00       10.00       10.00       10.00       10.00       10.00       10.00    
        10.00       10.00       10.00       10.00       10.00       10.00       10.00       10.00       10.00       10.00    
        10.00       10.00       10.00       10.00       10.00       10.00       10.00       10.00       10.00       10.00    
 100    10.00       10.00       10.00       10.00       10.00       10.00       10.00       10.00       10.00       10.00    
        10.00       10.00       10.00       10.00       10.00       10.00       10.00       10.00       10.00       10.00    
        10.00       10.00       10.00       10.00       10.00       10.00       10.00       10.00       10.00       10.00    
        10.00       10.00       10.00       10.00       10.00       10.00       10.00       10.00       10.00       10.00    
        10.00       10.00       10.00       10.00       10.00       10.00       10.00       10.00       10.00       10.00    
        10.00       10.00       10.00       10.00       10.00       10.00       10.00       10.00       10.00       10.00    
        10.00       10.00       10.00       10.00       10.00       10.00       10.00       10.00       10.00       10.00    
        10.00       10.00       10.00       10.00       10.00       10.00       10.00       10.00       10.00       10.00    
        10.00       10.00       10.00       10.00       10.00       10.00       10.00       10.00       10.00       10.00    
        10.00       10.00       10.00       10.00       10.00       10.00       10.00       10.00       10.00       10.00    

 HEAD WILL BE SAVED ON UNIT 1013 AT END OF TIME STEP    1, STRESS PERIOD    1


  VOLUME BUDGET FOR ENTIRE MODEL AT END OF TIME STEP    1, STRESS PERIOD   1
  ---------------------------------------------------------------------------------------------------

     CUMULATIVE VOLUME      L**3       RATES FOR THIS TIME STEP      L**3/T          PACKAGE NAME    
     ------------------                 ------------------------                     ----------------

           IN:                                      IN:
           ---                                      ---
              STO-SS =           0.0000                STO-SS =           0.0000     STORAGE                          
              STO-SY =           0.0000                STO-SY =           0.0000     STORAGE                          

            TOTAL IN =           0.0000              TOTAL IN =           0.0000

          OUT:                                     OUT:
          ----                                     ----
              STO-SS =           0.0000                STO-SS =           0.0000     STORAGE                          
              STO-SY =           0.0000                STO-SY =           0.0000     STORAGE                          

           TOTAL OUT =           0.0000             TOTAL OUT =           0.0000

            IN - OUT =           0.0000              IN - OUT =           0.0000

 PERCENT DISCREPANCY =           0.00     PERCENT DISCREPANCY =           0.00




         TIME SUMMARY AT END OF TIME STEP    1 IN STRESS PERIOD    1
                    SECONDS     MINUTES      HOURS       DAYS        YEARS
                    -----------------------------------------------------------
   TIME STEP LENGTH  86400.      1440.0      24.000      1.0000     2.73785E-03
 STRESS PERIOD TIME  86400.      1440.0      24.000      1.0000     2.73785E-03
         TOTAL TIME  86400.      1440.0      24.000      1.0000     2.73785E-03


end timestep

