Get the name of the MODPATH simulation file.
Read the first two records of the simulation file to get mpnamFile and mplistFile ...
Allocate rectangular unstructured grid component.
Allocate time discretization data component ...
Allocate disMf6Grid.
Read DIS binary grid file.
Read time discretization data component ...
 
 ----------------------------------------------------------
 Cell connection data:
 ----------------------------------------------------------
 Format has two lines for each cell, listed by cell number.
 Line 1: Cell connections
 Line 1: Face assignment codes
 ----------------------------------------------------------
        1       2     101
        0   20101   30101
 
        2       1       3     102
        0   10101   20101   30101
 
        3       2       4     103
        0   10101   20101   30101
 
        4       3       5     104
        0   10101   20101   30101
 
        5       4       6     105
        0   10101   20101   30101
 
        6       5       7     106
        0   10101   20101   30101
 
        7       6       8     107
        0   10101   20101   30101
 
        8       7       9     108
        0   10101   20101   30101
 
        9       8      10     109
        0   10101   20101   30101
 
       10       9      11     110
        0   10101   20101   30101
 
       11      10      12     111
        0   10101   20101   30101
 
       12      11      13     112
        0   10101   20101   30101
 
       13      12      14     113
        0   10101   20101   30101
 
       14      13      15     114
        0   10101   20101   30101
 
       15      14      16     115
        0   10101   20101   30101
 
       16      15      17     116
        0   10101   20101   30101
 
       17      16      18     117
        0   10101   20101   30101
 
       18      17      19     118
        0   10101   20101   30101
 
       19      18      20     119
        0   10101   20101   30101
 
       20      19      21     120
        0   10101   20101   30101
 
       21      20      22     121
        0   10101   20101   30101
 
       22      21      23     122
        0   10101   20101   30101
 
       23      22      24     123
        0   10101   20101   30101
 
       24      23      25     124
        0   10101   20101   30101
 
       25      24      26     125
        0   10101   20101   30101
 
       26      25      27     126
        0   10101   20101   30101
 
       27      26      28     127
        0   10101   20101   30101
 
       28      27      29     128
        0   10101   20101   30101
 
       29      28      30     129
        0   10101   20101   30101
 
       30      29      31     130
        0   10101   20101   30101
 
       31      30      32     131
        0   10101   20101   30101
 
       32      31      33     132
        0   10101   20101   30101
 
       33      32      34     133
        0   10101   20101   30101
 
       34      33      35     134
        0   10101   20101   30101
 
       35      34      36     135
        0   10101   20101   30101
 
       36      35      37     136
        0   10101   20101   30101
 
       37      36      38     137
        0   10101   20101   30101
 
       38      37      39     138
        0   10101   20101   30101
 
       39      38      40     139
        0   10101   20101   30101
 
       40      39      41     140
        0   10101   20101   30101
 
       41      40      42     141
        0   10101   20101   30101
 
       42      41      43     142
        0   10101   20101   30101
 
       43      42      44     143
        0   10101   20101   30101
 
       44      43      45     144
        0   10101   20101   30101
 
       45      44      46     145
        0   10101   20101   30101
 
       46      45      47     146
        0   10101   20101   30101
 
       47      46      48     147
        0   10101   20101   30101
 
       48      47      49     148
        0   10101   20101   30101
 
       49      48      50     149
        0   10101   20101   30101
 
       50      49      51     150
        0   10101   20101   30101
 
       51      50      52     151
        0   10101   20101   30101
 
       52      51      53     152
        0   10101   20101   30101
 
       53      52      54     153
        0   10101   20101   30101
 
       54      53      55     154
        0   10101   20101   30101
 
       55      54      56     155
        0   10101   20101   30101
 
       56      55      57     156
        0   10101   20101   30101
 
       57      56      58     157
        0   10101   20101   30101
 
       58      57      59     158
        0   10101   20101   30101
 
       59      58      60     159
        0   10101   20101   30101
 
       60      59      61     160
        0   10101   20101   30101
 
       61      60      62     161
        0   10101   20101   30101
 
       62      61      63     162
        0   10101   20101   30101
 
       63      62      64     163
        0   10101   20101   30101
 
       64      63      65     164
        0   10101   20101   30101
 
       65      64      66     165
        0   10101   20101   30101
 
       66      65      67     166
        0   10101   20101   30101
 
       67      66      68     167
        0   10101   20101   30101
 
       68      67      69     168
        0   10101   20101   30101
 
       69      68      70     169
        0   10101   20101   30101
 
       70      69      71     170
        0   10101   20101   30101
 
       71      70      72     171
        0   10101   20101   30101
 
       72      71      73     172
        0   10101   20101   30101
 
       73      72      74     173
        0   10101   20101   30101
 
       74      73      75     174
        0   10101   20101   30101
 
       75      74      76     175
        0   10101   20101   30101
 
       76      75      77     176
        0   10101   20101   30101
 
       77      76      78     177
        0   10101   20101   30101
 
       78      77      79     178
        0   10101   20101   30101
 
       79      78      80     179
        0   10101   20101   30101
 
       80      79      81     180
        0   10101   20101   30101
 
       81      80      82     181
        0   10101   20101   30101
 
       82      81      83     182
        0   10101   20101   30101
 
       83      82      84     183
        0   10101   20101   30101
 
       84      83      85     184
        0   10101   20101   30101
 
       85      84      86     185
        0   10101   20101   30101
 
       86      85      87     186
        0   10101   20101   30101
 
       87      86      88     187
        0   10101   20101   30101
 
       88      87      89     188
        0   10101   20101   30101
 
       89      88      90     189
        0   10101   20101   30101
 
       90      89      91     190
        0   10101   20101   30101
 
       91      90      92     191
        0   10101   20101   30101
 
       92      91      93     192
        0   10101   20101   30101
 
       93      92      94     193
        0   10101   20101   30101
 
       94      93      95     194
        0   10101   20101   30101
 
       95      94      96     195
        0   10101   20101   30101
 
       96      95      97     196
        0   10101   20101   30101
 
       97      96      98     197
        0   10101   20101   30101
 
       98      97      99     198
        0   10101   20101   30101
 
       99      98     100     199
        0   10101   20101   30101
 
      100      99     200
        0   10101   30101
 
      101       1     102     201
        0   40101   20101   30101
 
      102       2     101     103     202
        0   40101   10101   20101   30101
 
      103       3     102     104     203
        0   40101   10101   20101   30101
 
      104       4     103     105     204
        0   40101   10101   20101   30101
 
      105       5     104     106     205
        0   40101   10101   20101   30101
 
      106       6     105     107     206
        0   40101   10101   20101   30101
 
      107       7     106     108     207
        0   40101   10101   20101   30101
 
      108       8     107     109     208
        0   40101   10101   20101   30101
 
      109       9     108     110     209
        0   40101   10101   20101   30101
 
      110      10     109     111     210
        0   40101   10101   20101   30101
 
      111      11     110     112     211
        0   40101   10101   20101   30101
 
      112      12     111     113     212
        0   40101   10101   20101   30101
 
      113      13     112     114     213
        0   40101   10101   20101   30101
 
      114      14     113     115     214
        0   40101   10101   20101   30101
 
      115      15     114     116     215
        0   40101   10101   20101   30101
 
      116      16     115     117     216
        0   40101   10101   20101   30101
 
      117      17     116     118     217
        0   40101   10101   20101   30101
 
      118      18     117     119     218
        0   40101   10101   20101   30101
 
      119      19     118     120     219
        0   40101   10101   20101   30101
 
      120      20     119     121     220
        0   40101   10101   20101   30101
 
      121      21     120     122     221
        0   40101   10101   20101   30101
 
      122      22     121     123     222
        0   40101   10101   20101   30101
 
      123      23     122     124     223
        0   40101   10101   20101   30101
 
      124      24     123     125     224
        0   40101   10101   20101   30101
 
      125      25     124     126     225
        0   40101   10101   20101   30101
 
      126      26     125     127     226
        0   40101   10101   20101   30101
 
      127      27     126     128     227
        0   40101   10101   20101   30101
 
      128      28     127     129     228
        0   40101   10101   20101   30101
 
      129      29     128     130     229
        0   40101   10101   20101   30101
 
      130      30     129     131     230
        0   40101   10101   20101   30101
 
      131      31     130     132     231
        0   40101   10101   20101   30101
 
      132      32     131     133     232
        0   40101   10101   20101   30101
 
      133      33     132     134     233
        0   40101   10101   20101   30101
 
      134      34     133     135     234
        0   40101   10101   20101   30101
 
      135      35     134     136     235
        0   40101   10101   20101   30101
 
      136      36     135     137     236
        0   40101   10101   20101   30101
 
      137      37     136     138     237
        0   40101   10101   20101   30101
 
      138      38     137     139     238
        0   40101   10101   20101   30101
 
      139      39     138     140     239
        0   40101   10101   20101   30101
 
      140      40     139     141     240
        0   40101   10101   20101   30101
 
      141      41     140     142     241
        0   40101   10101   20101   30101
 
      142      42     141     143     242
        0   40101   10101   20101   30101
 
      143      43     142     144     243
        0   40101   10101   20101   30101
 
      144      44     143     145     244
        0   40101   10101   20101   30101
 
      145      45     144     146     245
        0   40101   10101   20101   30101
 
      146      46     145     147     246
        0   40101   10101   20101   30101
 
      147      47     146     148     247
        0   40101   10101   20101   30101
 
      148      48     147     149     248
        0   40101   10101   20101   30101
 
      149      49     148     150     249
        0   40101   10101   20101   30101
 
      150      50     149     151     250
        0   40101   10101   20101   30101
 
      151      51     150     152     251
        0   40101   10101   20101   30101
 
      152      52     151     153     252
        0   40101   10101   20101   30101
 
      153      53     152     154     253
        0   40101   10101   20101   30101
 
      154      54     153     155     254
        0   40101   10101   20101   30101
 
      155      55     154     156     255
        0   40101   10101   20101   30101
 
      156      56     155     157     256
        0   40101   10101   20101   30101
 
      157      57     156     158     257
        0   40101   10101   20101   30101
 
      158      58     157     159     258
        0   40101   10101   20101   30101
 
      159      59     158     160     259
        0   40101   10101   20101   30101
 
      160      60     159     161     260
        0   40101   10101   20101   30101
 
      161      61     160     162     261
        0   40101   10101   20101   30101
 
      162      62     161     163     262
        0   40101   10101   20101   30101
 
      163      63     162     164     263
        0   40101   10101   20101   30101
 
      164      64     163     165     264
        0   40101   10101   20101   30101
 
      165      65     164     166     265
        0   40101   10101   20101   30101
 
      166      66     165     167     266
        0   40101   10101   20101   30101
 
      167      67     166     168     267
        0   40101   10101   20101   30101
 
      168      68     167     169     268
        0   40101   10101   20101   30101
 
      169      69     168     170     269
        0   40101   10101   20101   30101
 
      170      70     169     171     270
        0   40101   10101   20101   30101
 
      171      71     170     172     271
        0   40101   10101   20101   30101
 
      172      72     171     173     272
        0   40101   10101   20101   30101
 
      173      73     172     174     273
        0   40101   10101   20101   30101
 
      174      74     173     175     274
        0   40101   10101   20101   30101
 
      175      75     174     176     275
        0   40101   10101   20101   30101
 
      176      76     175     177     276
        0   40101   10101   20101   30101
 
      177      77     176     178     277
        0   40101   10101   20101   30101
 
      178      78     177     179     278
        0   40101   10101   20101   30101
 
      179      79     178     180     279
        0   40101   10101   20101   30101
 
      180      80     179     181     280
        0   40101   10101   20101   30101
 
      181      81     180     182     281
        0   40101   10101   20101   30101
 
      182      82     181     183     282
        0   40101   10101   20101   30101
 
      183      83     182     184     283
        0   40101   10101   20101   30101
 
      184      84     183     185     284
        0   40101   10101   20101   30101
 
      185      85     184     186     285
        0   40101   10101   20101   30101
 
      186      86     185     187     286
        0   40101   10101   20101   30101
 
      187      87     186     188     287
        0   40101   10101   20101   30101
 
      188      88     187     189     288
        0   40101   10101   20101   30101
 
      189      89     188     190     289
        0   40101   10101   20101   30101
 
      190      90     189     191     290
        0   40101   10101   20101   30101
 
      191      91     190     192     291
        0   40101   10101   20101   30101
 
      192      92     191     193     292
        0   40101   10101   20101   30101
 
      193      93     192     194     293
        0   40101   10101   20101   30101
 
      194      94     193     195     294
        0   40101   10101   20101   30101
 
      195      95     194     196     295
        0   40101   10101   20101   30101
 
      196      96     195     197     296
        0   40101   10101   20101   30101
 
      197      97     196     198     297
        0   40101   10101   20101   30101
 
      198      98     197     199     298
        0   40101   10101   20101   30101
 
      199      99     198     200     299
        0   40101   10101   20101   30101
 
      200     100     199     300
        0   40101   10101   30101
 
      201     101     202     301
        0   40101   20101   30101
 
      202     102     201     203     302
        0   40101   10101   20101   30101
 
      203     103     202     204     303
        0   40101   10101   20101   30101
 
      204     104     203     205     304
        0   40101   10101   20101   30101
 
      205     105     204     206     305
        0   40101   10101   20101   30101
 
      206     106     205     207     306
        0   40101   10101   20101   30101
 
      207     107     206     208     307
        0   40101   10101   20101   30101
 
      208     108     207     209     308
        0   40101   10101   20101   30101
 
      209     109     208     210     309
        0   40101   10101   20101   30101
 
      210     110     209     211     310
        0   40101   10101   20101   30101
 
      211     111     210     212     311
        0   40101   10101   20101   30101
 
      212     112     211     213     312
        0   40101   10101   20101   30101
 
      213     113     212     214     313
        0   40101   10101   20101   30101
 
      214     114     213     215     314
        0   40101   10101   20101   30101
 
      215     115     214     216     315
        0   40101   10101   20101   30101
 
      216     116     215     217     316
        0   40101   10101   20101   30101
 
      217     117     216     218     317
        0   40101   10101   20101   30101
 
      218     118     217     219     318
        0   40101   10101   20101   30101
 
      219     119     218     220     319
        0   40101   10101   20101   30101
 
      220     120     219     221     320
        0   40101   10101   20101   30101
 
      221     121     220     222     321
        0   40101   10101   20101   30101
 
      222     122     221     223     322
        0   40101   10101   20101   30101
 
      223     123     222     224     323
        0   40101   10101   20101   30101
 
      224     124     223     225     324
        0   40101   10101   20101   30101
 
      225     125     224     226     325
        0   40101   10101   20101   30101
 
      226     126     225     227     326
        0   40101   10101   20101   30101
 
      227     127     226     228     327
        0   40101   10101   20101   30101
 
      228     128     227     229     328
        0   40101   10101   20101   30101
 
      229     129     228     230     329
        0   40101   10101   20101   30101
 
      230     130     229     231     330
        0   40101   10101   20101   30101
 
      231     131     230     232     331
        0   40101   10101   20101   30101
 
      232     132     231     233     332
        0   40101   10101   20101   30101
 
      233     133     232     234     333
        0   40101   10101   20101   30101
 
      234     134     233     235     334
        0   40101   10101   20101   30101
 
      235     135     234     236     335
        0   40101   10101   20101   30101
 
      236     136     235     237     336
        0   40101   10101   20101   30101
 
      237     137     236     238     337
        0   40101   10101   20101   30101
 
      238     138     237     239     338
        0   40101   10101   20101   30101
 
      239     139     238     240     339
        0   40101   10101   20101   30101
 
      240     140     239     241     340
        0   40101   10101   20101   30101
 
      241     141     240     242     341
        0   40101   10101   20101   30101
 
      242     142     241     243     342
        0   40101   10101   20101   30101
 
      243     143     242     244     343
        0   40101   10101   20101   30101
 
      244     144     243     245     344
        0   40101   10101   20101   30101
 
      245     145     244     246     345
        0   40101   10101   20101   30101
 
      246     146     245     247     346
        0   40101   10101   20101   30101
 
      247     147     246     248     347
        0   40101   10101   20101   30101
 
      248     148     247     249     348
        0   40101   10101   20101   30101
 
      249     149     248     250     349
        0   40101   10101   20101   30101
 
      250     150     249     251     350
        0   40101   10101   20101   30101
 
      251     151     250     252     351
        0   40101   10101   20101   30101
 
      252     152     251     253     352
        0   40101   10101   20101   30101
 
      253     153     252     254     353
        0   40101   10101   20101   30101
 
      254     154     253     255     354
        0   40101   10101   20101   30101
 
      255     155     254     256     355
        0   40101   10101   20101   30101
 
      256     156     255     257     356
        0   40101   10101   20101   30101
 
      257     157     256     258     357
        0   40101   10101   20101   30101
 
      258     158     257     259     358
        0   40101   10101   20101   30101
 
      259     159     258     260     359
        0   40101   10101   20101   30101
 
      260     160     259     261     360
        0   40101   10101   20101   30101
 
      261     161     260     262     361
        0   40101   10101   20101   30101
 
      262     162     261     263     362
        0   40101   10101   20101   30101
 
      263     163     262     264     363
        0   40101   10101   20101   30101
 
      264     164     263     265     364
        0   40101   10101   20101   30101
 
      265     165     264     266     365
        0   40101   10101   20101   30101
 
      266     166     265     267     366
        0   40101   10101   20101   30101
 
      267     167     266     268     367
        0   40101   10101   20101   30101
 
      268     168     267     269     368
        0   40101   10101   20101   30101
 
      269     169     268     270     369
        0   40101   10101   20101   30101
 
      270     170     269     271     370
        0   40101   10101   20101   30101
 
      271     171     270     272     371
        0   40101   10101   20101   30101
 
      272     172     271     273     372
        0   40101   10101   20101   30101
 
      273     173     272     274     373
        0   40101   10101   20101   30101
 
      274     174     273     275     374
        0   40101   10101   20101   30101
 
      275     175     274     276     375
        0   40101   10101   20101   30101
 
      276     176     275     277     376
        0   40101   10101   20101   30101
 
      277     177     276     278     377
        0   40101   10101   20101   30101
 
      278     178     277     279     378
        0   40101   10101   20101   30101
 
      279     179     278     280     379
        0   40101   10101   20101   30101
 
      280     180     279     281     380
        0   40101   10101   20101   30101
 
      281     181     280     282     381
        0   40101   10101   20101   30101
 
      282     182     281     283     382
        0   40101   10101   20101   30101
 
      283     183     282     284     383
        0   40101   10101   20101   30101
 
      284     184     283     285     384
        0   40101   10101   20101   30101
 
      285     185     284     286     385
        0   40101   10101   20101   30101
 
      286     186     285     287     386
        0   40101   10101   20101   30101
 
      287     187     286     288     387
        0   40101   10101   20101   30101
 
      288     188     287     289     388
        0   40101   10101   20101   30101
 
      289     189     288     290     389
        0   40101   10101   20101   30101
 
      290     190     289     291     390
        0   40101   10101   20101   30101
 
      291     191     290     292     391
        0   40101   10101   20101   30101
 
      292     192     291     293     392
        0   40101   10101   20101   30101
 
      293     193     292     294     393
        0   40101   10101   20101   30101
 
      294     194     293     295     394
        0   40101   10101   20101   30101
 
      295     195     294     296     395
        0   40101   10101   20101   30101
 
      296     196     295     297     396
        0   40101   10101   20101   30101
 
      297     197     296     298     397
        0   40101   10101   20101   30101
 
      298     198     297     299     398
        0   40101   10101   20101   30101
 
      299     199     298     300     399
        0   40101   10101   20101   30101
 
      300     200     299     400
        0   40101   10101   30101
 
      301     201     302     401
        0   40101   20101   30101
 
      302     202     301     303     402
        0   40101   10101   20101   30101
 
      303     203     302     304     403
        0   40101   10101   20101   30101
 
      304     204     303     305     404
        0   40101   10101   20101   30101
 
      305     205     304     306     405
        0   40101   10101   20101   30101
 
      306     206     305     307     406
        0   40101   10101   20101   30101
 
      307     207     306     308     407
        0   40101   10101   20101   30101
 
      308     208     307     309     408
        0   40101   10101   20101   30101
 
      309     209     308     310     409
        0   40101   10101   20101   30101
 
      310     210     309     311     410
        0   40101   10101   20101   30101
 
      311     211     310     312     411
        0   40101   10101   20101   30101
 
      312     212     311     313     412
        0   40101   10101   20101   30101
 
      313     213     312     314     413
        0   40101   10101   20101   30101
 
      314     214     313     315     414
        0   40101   10101   20101   30101
 
      315     215     314     316     415
        0   40101   10101   20101   30101
 
      316     216     315     317     416
        0   40101   10101   20101   30101
 
      317     217     316     318     417
        0   40101   10101   20101   30101
 
      318     218     317     319     418
        0   40101   10101   20101   30101
 
      319     219     318     320     419
        0   40101   10101   20101   30101
 
      320     220     319     321     420
        0   40101   10101   20101   30101
 
      321     221     320     322     421
        0   40101   10101   20101   30101
 
      322     222     321     323     422
        0   40101   10101   20101   30101
 
      323     223     322     324     423
        0   40101   10101   20101   30101
 
      324     224     323     325     424
        0   40101   10101   20101   30101
 
      325     225     324     326     425
        0   40101   10101   20101   30101
 
      326     226     325     327     426
        0   40101   10101   20101   30101
 
      327     227     326     328     427
        0   40101   10101   20101   30101
 
      328     228     327     329     428
        0   40101   10101   20101   30101
 
      329     229     328     330     429
        0   40101   10101   20101   30101
 
      330     230     329     331     430
        0   40101   10101   20101   30101
 
      331     231     330     332     431
        0   40101   10101   20101   30101
 
      332     232     331     333     432
        0   40101   10101   20101   30101
 
      333     233     332     334     433
        0   40101   10101   20101   30101
 
      334     234     333     335     434
        0   40101   10101   20101   30101
 
      335     235     334     336     435
        0   40101   10101   20101   30101
 
      336     236     335     337     436
        0   40101   10101   20101   30101
 
      337     237     336     338     437
        0   40101   10101   20101   30101
 
      338     238     337     339     438
        0   40101   10101   20101   30101
 
      339     239     338     340     439
        0   40101   10101   20101   30101
 
      340     240     339     341     440
        0   40101   10101   20101   30101
 
      341     241     340     342     441
        0   40101   10101   20101   30101
 
      342     242     341     343     442
        0   40101   10101   20101   30101
 
      343     243     342     344     443
        0   40101   10101   20101   30101
 
      344     244     343     345     444
        0   40101   10101   20101   30101
 
      345     245     344     346     445
        0   40101   10101   20101   30101
 
      346     246     345     347     446
        0   40101   10101   20101   30101
 
      347     247     346     348     447
        0   40101   10101   20101   30101
 
      348     248     347     349     448
        0   40101   10101   20101   30101
 
      349     249     348     350     449
        0   40101   10101   20101   30101
 
      350     250     349     351     450
        0   40101   10101   20101   30101
 
      351     251     350     352     451
        0   40101   10101   20101   30101
 
      352     252     351     353     452
        0   40101   10101   20101   30101
 
      353     253     352     354     453
        0   40101   10101   20101   30101
 
      354     254     353     355     454
        0   40101   10101   20101   30101
 
      355     255     354     356     455
        0   40101   10101   20101   30101
 
      356     256     355     357     456
        0   40101   10101   20101   30101
 
      357     257     356     358     457
        0   40101   10101   20101   30101
 
      358     258     357     359     458
        0   40101   10101   20101   30101
 
      359     259     358     360     459
        0   40101   10101   20101   30101
 
      360     260     359     361     460
        0   40101   10101   20101   30101
 
      361     261     360     362     461
        0   40101   10101   20101   30101
 
      362     262     361     363     462
        0   40101   10101   20101   30101
 
      363     263     362     364     463
        0   40101   10101   20101   30101
 
      364     264     363     365     464
        0   40101   10101   20101   30101
 
      365     265     364     366     465
        0   40101   10101   20101   30101
 
      366     266     365     367     466
        0   40101   10101   20101   30101
 
      367     267     366     368     467
        0   40101   10101   20101   30101
 
      368     268     367     369     468
        0   40101   10101   20101   30101
 
      369     269     368     370     469
        0   40101   10101   20101   30101
 
      370     270     369     371     470
        0   40101   10101   20101   30101
 
      371     271     370     372     471
        0   40101   10101   20101   30101
 
      372     272     371     373     472
        0   40101   10101   20101   30101
 
      373     273     372     374     473
        0   40101   10101   20101   30101
 
      374     274     373     375     474
        0   40101   10101   20101   30101
 
      375     275     374     376     475
        0   40101   10101   20101   30101
 
      376     276     375     377     476
        0   40101   10101   20101   30101
 
      377     277     376     378     477
        0   40101   10101   20101   30101
 
      378     278     377     379     478
        0   40101   10101   20101   30101
 
      379     279     378     380     479
        0   40101   10101   20101   30101
 
      380     280     379     381     480
        0   40101   10101   20101   30101
 
      381     281     380     382     481
        0   40101   10101   20101   30101
 
      382     282     381     383     482
        0   40101   10101   20101   30101
 
      383     283     382     384     483
        0   40101   10101   20101   30101
 
      384     284     383     385     484
        0   40101   10101   20101   30101
 
      385     285     384     386     485
        0   40101   10101   20101   30101
 
      386     286     385     387     486
        0   40101   10101   20101   30101
 
      387     287     386     388     487
        0   40101   10101   20101   30101
 
      388     288     387     389     488
        0   40101   10101   20101   30101
 
      389     289     388     390     489
        0   40101   10101   20101   30101
 
      390     290     389     391     490
        0   40101   10101   20101   30101
 
      391     291     390     392     491
        0   40101   10101   20101   30101
 
      392     292     391     393     492
        0   40101   10101   20101   30101
 
      393     293     392     394     493
        0   40101   10101   20101   30101
 
      394     294     393     395     494
        0   40101   10101   20101   30101
 
      395     295     394     396     495
        0   40101   10101   20101   30101
 
      396     296     395     397     496
        0   40101   10101   20101   30101
 
      397     297     396     398     497
        0   40101   10101   20101   30101
 
      398     298     397     399     498
        0   40101   10101   20101   30101
 
      399     299     398     400     499
        0   40101   10101   20101   30101
 
      400     300     399     500
        0   40101   10101   30101
 
      401     301     402     501
        0   40101   20101   30101
 
      402     302     401     403     502
        0   40101   10101   20101   30101
 
      403     303     402     404     503
        0   40101   10101   20101   30101
 
      404     304     403     405     504
        0   40101   10101   20101   30101
 
      405     305     404     406     505
        0   40101   10101   20101   30101
 
      406     306     405     407     506
        0   40101   10101   20101   30101
 
      407     307     406     408     507
        0   40101   10101   20101   30101
 
      408     308     407     409     508
        0   40101   10101   20101   30101
 
      409     309     408     410     509
        0   40101   10101   20101   30101
 
      410     310     409     411     510
        0   40101   10101   20101   30101
 
      411     311     410     412     511
        0   40101   10101   20101   30101
 
      412     312     411     413     512
        0   40101   10101   20101   30101
 
      413     313     412     414     513
        0   40101   10101   20101   30101
 
      414     314     413     415     514
        0   40101   10101   20101   30101
 
      415     315     414     416     515
        0   40101   10101   20101   30101
 
      416     316     415     417     516
        0   40101   10101   20101   30101
 
      417     317     416     418     517
        0   40101   10101   20101   30101
 
      418     318     417     419     518
        0   40101   10101   20101   30101
 
      419     319     418     420     519
        0   40101   10101   20101   30101
 
      420     320     419     421     520
        0   40101   10101   20101   30101
 
      421     321     420     422     521
        0   40101   10101   20101   30101
 
      422     322     421     423     522
        0   40101   10101   20101   30101
 
      423     323     422     424     523
        0   40101   10101   20101   30101
 
      424     324     423     425     524
        0   40101   10101   20101   30101
 
      425     325     424     426     525
        0   40101   10101   20101   30101
 
      426     326     425     427     526
        0   40101   10101   20101   30101
 
      427     327     426     428     527
        0   40101   10101   20101   30101
 
      428     328     427     429     528
        0   40101   10101   20101   30101
 
      429     329     428     430     529
        0   40101   10101   20101   30101
 
      430     330     429     431     530
        0   40101   10101   20101   30101
 
      431     331     430     432     531
        0   40101   10101   20101   30101
 
      432     332     431     433     532
        0   40101   10101   20101   30101
 
      433     333     432     434     533
        0   40101   10101   20101   30101
 
      434     334     433     435     534
        0   40101   10101   20101   30101
 
      435     335     434     436     535
        0   40101   10101   20101   30101
 
      436     336     435     437     536
        0   40101   10101   20101   30101
 
      437     337     436     438     537
        0   40101   10101   20101   30101
 
      438     338     437     439     538
        0   40101   10101   20101   30101
 
      439     339     438     440     539
        0   40101   10101   20101   30101
 
      440     340     439     441     540
        0   40101   10101   20101   30101
 
      441     341     440     442     541
        0   40101   10101   20101   30101
 
      442     342     441     443     542
        0   40101   10101   20101   30101
 
      443     343     442     444     543
        0   40101   10101   20101   30101
 
      444     344     443     445     544
        0   40101   10101   20101   30101
 
      445     345     444     446     545
        0   40101   10101   20101   30101
 
      446     346     445     447     546
        0   40101   10101   20101   30101
 
      447     347     446     448     547
        0   40101   10101   20101   30101
 
      448     348     447     449     548
        0   40101   10101   20101   30101
 
      449     349     448     450     549
        0   40101   10101   20101   30101
 
      450     350     449     451     550
        0   40101   10101   20101   30101
 
      451     351     450     452     551
        0   40101   10101   20101   30101
 
      452     352     451     453     552
        0   40101   10101   20101   30101
 
      453     353     452     454     553
        0   40101   10101   20101   30101
 
      454     354     453     455     554
        0   40101   10101   20101   30101
 
      455     355     454     456     555
        0   40101   10101   20101   30101
 
      456     356     455     457     556
        0   40101   10101   20101   30101
 
      457     357     456     458     557
        0   40101   10101   20101   30101
 
      458     358     457     459     558
        0   40101   10101   20101   30101
 
      459     359     458     460     559
        0   40101   10101   20101   30101
 
      460     360     459     461     560
        0   40101   10101   20101   30101
 
      461     361     460     462     561
        0   40101   10101   20101   30101
 
      462     362     461     463     562
        0   40101   10101   20101   30101
 
      463     363     462     464     563
        0   40101   10101   20101   30101
 
      464     364     463     465     564
        0   40101   10101   20101   30101
 
      465     365     464     466     565
        0   40101   10101   20101   30101
 
      466     366     465     467     566
        0   40101   10101   20101   30101
 
      467     367     466     468     567
        0   40101   10101   20101   30101
 
      468     368     467     469     568
        0   40101   10101   20101   30101
 
      469     369     468     470     569
        0   40101   10101   20101   30101
 
      470     370     469     471     570
        0   40101   10101   20101   30101
 
      471     371     470     472     571
        0   40101   10101   20101   30101
 
      472     372     471     473     572
        0   40101   10101   20101   30101
 
      473     373     472     474     573
        0   40101   10101   20101   30101
 
      474     374     473     475     574
        0   40101   10101   20101   30101
 
      475     375     474     476     575
        0   40101   10101   20101   30101
 
      476     376     475     477     576
        0   40101   10101   20101   30101
 
      477     377     476     478     577
        0   40101   10101   20101   30101
 
      478     378     477     479     578
        0   40101   10101   20101   30101
 
      479     379     478     480     579
        0   40101   10101   20101   30101
 
      480     380     479     481     580
        0   40101   10101   20101   30101
 
      481     381     480     482     581
        0   40101   10101   20101   30101
 
      482     382     481     483     582
        0   40101   10101   20101   30101
 
      483     383     482     484     583
        0   40101   10101   20101   30101
 
      484     384     483     485     584
        0   40101   10101   20101   30101
 
      485     385     484     486     585
        0   40101   10101   20101   30101
 
      486     386     485     487     586
        0   40101   10101   20101   30101
 
      487     387     486     488     587
        0   40101   10101   20101   30101
 
      488     388     487     489     588
        0   40101   10101   20101   30101
 
      489     389     488     490     589
        0   40101   10101   20101   30101
 
      490     390     489     491     590
        0   40101   10101   20101   30101
 
      491     391     490     492     591
        0   40101   10101   20101   30101
 
      492     392     491     493     592
        0   40101   10101   20101   30101
 
      493     393     492     494     593
        0   40101   10101   20101   30101
 
      494     394     493     495     594
        0   40101   10101   20101   30101
 
      495     395     494     496     595
        0   40101   10101   20101   30101
 
      496     396     495     497     596
        0   40101   10101   20101   30101
 
      497     397     496     498     597
        0   40101   10101   20101   30101
 
      498     398     497     499     598
        0   40101   10101   20101   30101
 
      499     399     498     500     599
        0   40101   10101   20101   30101
 
      500     400     499     600
        0   40101   10101   30101
 
      501     401     502     601
        0   40101   20101   30101
 
      502     402     501     503     602
        0   40101   10101   20101   30101
 
      503     403     502     504     603
        0   40101   10101   20101   30101
 
      504     404     503     505     604
        0   40101   10101   20101   30101
 
      505     405     504     506     605
        0   40101   10101   20101   30101
 
      506     406     505     507     606
        0   40101   10101   20101   30101
 
      507     407     506     508     607
        0   40101   10101   20101   30101
 
      508     408     507     509     608
        0   40101   10101   20101   30101
 
      509     409     508     510     609
        0   40101   10101   20101   30101
 
      510     410     509     511     610
        0   40101   10101   20101   30101
 
      511     411     510     512     611
        0   40101   10101   20101   30101
 
      512     412     511     513     612
        0   40101   10101   20101   30101
 
      513     413     512     514     613
        0   40101   10101   20101   30101
 
      514     414     513     515     614
        0   40101   10101   20101   30101
 
      515     415     514     516     615
        0   40101   10101   20101   30101
 
      516     416     515     517     616
        0   40101   10101   20101   30101
 
      517     417     516     518     617
        0   40101   10101   20101   30101
 
      518     418     517     519     618
        0   40101   10101   20101   30101
 
      519     419     518     520     619
        0   40101   10101   20101   30101
 
      520     420     519     521     620
        0   40101   10101   20101   30101
 
      521     421     520     522     621
        0   40101   10101   20101   30101
 
      522     422     521     523     622
        0   40101   10101   20101   30101
 
      523     423     522     524     623
        0   40101   10101   20101   30101
 
      524     424     523     525     624
        0   40101   10101   20101   30101
 
      525     425     524     526     625
        0   40101   10101   20101   30101
 
      526     426     525     527     626
        0   40101   10101   20101   30101
 
      527     427     526     528     627
        0   40101   10101   20101   30101
 
      528     428     527     529     628
        0   40101   10101   20101   30101
 
      529     429     528     530     629
        0   40101   10101   20101   30101
 
      530     430     529     531     630
        0   40101   10101   20101   30101
 
      531     431     530     532     631
        0   40101   10101   20101   30101
 
      532     432     531     533     632
        0   40101   10101   20101   30101
 
      533     433     532     534     633
        0   40101   10101   20101   30101
 
      534     434     533     535     634
        0   40101   10101   20101   30101
 
      535     435     534     536     635
        0   40101   10101   20101   30101
 
      536     436     535     537     636
        0   40101   10101   20101   30101
 
      537     437     536     538     637
        0   40101   10101   20101   30101
 
      538     438     537     539     638
        0   40101   10101   20101   30101
 
      539     439     538     540     639
        0   40101   10101   20101   30101
 
      540     440     539     541     640
        0   40101   10101   20101   30101
 
      541     441     540     542     641
        0   40101   10101   20101   30101
 
      542     442     541     543     642
        0   40101   10101   20101   30101
 
      543     443     542     544     643
        0   40101   10101   20101   30101
 
      544     444     543     545     644
        0   40101   10101   20101   30101
 
      545     445     544     546     645
        0   40101   10101   20101   30101
 
      546     446     545     547     646
        0   40101   10101   20101   30101
 
      547     447     546     548     647
        0   40101   10101   20101   30101
 
      548     448     547     549     648
        0   40101   10101   20101   30101
 
      549     449     548     550     649
        0   40101   10101   20101   30101
 
      550     450     549     551     650
        0   40101   10101   20101   30101
 
      551     451     550     552     651
        0   40101   10101   20101   30101
 
      552     452     551     553     652
        0   40101   10101   20101   30101
 
      553     453     552     554     653
        0   40101   10101   20101   30101
 
      554     454     553     555     654
        0   40101   10101   20101   30101
 
      555     455     554     556     655
        0   40101   10101   20101   30101
 
      556     456     555     557     656
        0   40101   10101   20101   30101
 
      557     457     556     558     657
        0   40101   10101   20101   30101
 
      558     458     557     559     658
        0   40101   10101   20101   30101
 
      559     459     558     560     659
        0   40101   10101   20101   30101
 
      560     460     559     561     660
        0   40101   10101   20101   30101
 
      561     461     560     562     661
        0   40101   10101   20101   30101
 
      562     462     561     563     662
        0   40101   10101   20101   30101
 
      563     463     562     564     663
        0   40101   10101   20101   30101
 
      564     464     563     565     664
        0   40101   10101   20101   30101
 
      565     465     564     566     665
        0   40101   10101   20101   30101
 
      566     466     565     567     666
        0   40101   10101   20101   30101
 
      567     467     566     568     667
        0   40101   10101   20101   30101
 
      568     468     567     569     668
        0   40101   10101   20101   30101
 
      569     469     568     570     669
        0   40101   10101   20101   30101
 
      570     470     569     571     670
        0   40101   10101   20101   30101
 
      571     471     570     572     671
        0   40101   10101   20101   30101
 
      572     472     571     573     672
        0   40101   10101   20101   30101
 
      573     473     572     574     673
        0   40101   10101   20101   30101
 
      574     474     573     575     674
        0   40101   10101   20101   30101
 
      575     475     574     576     675
        0   40101   10101   20101   30101
 
      576     476     575     577     676
        0   40101   10101   20101   30101
 
      577     477     576     578     677
        0   40101   10101   20101   30101
 
      578     478     577     579     678
        0   40101   10101   20101   30101
 
      579     479     578     580     679
        0   40101   10101   20101   30101
 
      580     480     579     581     680
        0   40101   10101   20101   30101
 
      581     481     580     582     681
        0   40101   10101   20101   30101
 
      582     482     581     583     682
        0   40101   10101   20101   30101
 
      583     483     582     584     683
        0   40101   10101   20101   30101
 
      584     484     583     585     684
        0   40101   10101   20101   30101
 
      585     485     584     586     685
        0   40101   10101   20101   30101
 
      586     486     585     587     686
        0   40101   10101   20101   30101
 
      587     487     586     588     687
        0   40101   10101   20101   30101
 
      588     488     587     589     688
        0   40101   10101   20101   30101
 
      589     489     588     590     689
        0   40101   10101   20101   30101
 
      590     490     589     591     690
        0   40101   10101   20101   30101
 
      591     491     590     592     691
        0   40101   10101   20101   30101
 
      592     492     591     593     692
        0   40101   10101   20101   30101
 
      593     493     592     594     693
        0   40101   10101   20101   30101
 
      594     494     593     595     694
        0   40101   10101   20101   30101
 
      595     495     594     596     695
        0   40101   10101   20101   30101
 
      596     496     595     597     696
        0   40101   10101   20101   30101
 
      597     497     596     598     697
        0   40101   10101   20101   30101
 
      598     498     597     599     698
        0   40101   10101   20101   30101
 
      599     499     598     600     699
        0   40101   10101   20101   30101
 
      600     500     599     700
        0   40101   10101   30101
 
      601     501     602     701
        0   40101   20101   30101
 
      602     502     601     603     702
        0   40101   10101   20101   30101
 
      603     503     602     604     703
        0   40101   10101   20101   30101
 
      604     504     603     605     704
        0   40101   10101   20101   30101
 
      605     505     604     606     705
        0   40101   10101   20101   30101
 
      606     506     605     607     706
        0   40101   10101   20101   30101
 
      607     507     606     608     707
        0   40101   10101   20101   30101
 
      608     508     607     609     708
        0   40101   10101   20101   30101
 
      609     509     608     610     709
        0   40101   10101   20101   30101
 
      610     510     609     611     710
        0   40101   10101   20101   30101
 
      611     511     610     612     711
        0   40101   10101   20101   30101
 
      612     512     611     613     712
        0   40101   10101   20101   30101
 
      613     513     612     614     713
        0   40101   10101   20101   30101
 
      614     514     613     615     714
        0   40101   10101   20101   30101
 
      615     515     614     616     715
        0   40101   10101   20101   30101
 
      616     516     615     617     716
        0   40101   10101   20101   30101
 
      617     517     616     618     717
        0   40101   10101   20101   30101
 
      618     518     617     619     718
        0   40101   10101   20101   30101
 
      619     519     618     620     719
        0   40101   10101   20101   30101
 
      620     520     619     621     720
        0   40101   10101   20101   30101
 
      621     521     620     622     721
        0   40101   10101   20101   30101
 
      622     522     621     623     722
        0   40101   10101   20101   30101
 
      623     523     622     624     723
        0   40101   10101   20101   30101
 
      624     524     623     625     724
        0   40101   10101   20101   30101
 
      625     525     624     626     725
        0   40101   10101   20101   30101
 
      626     526     625     627     726
        0   40101   10101   20101   30101
 
      627     527     626     628     727
        0   40101   10101   20101   30101
 
      628     528     627     629     728
        0   40101   10101   20101   30101
 
      629     529     628     630     729
        0   40101   10101   20101   30101
 
      630     530     629     631     730
        0   40101   10101   20101   30101
 
      631     531     630     632     731
        0   40101   10101   20101   30101
 
      632     532     631     633     732
        0   40101   10101   20101   30101
 
      633     533     632     634     733
        0   40101   10101   20101   30101
 
      634     534     633     635     734
        0   40101   10101   20101   30101
 
      635     535     634     636     735
        0   40101   10101   20101   30101
 
      636     536     635     637     736
        0   40101   10101   20101   30101
 
      637     537     636     638     737
        0   40101   10101   20101   30101
 
      638     538     637     639     738
        0   40101   10101   20101   30101
 
      639     539     638     640     739
        0   40101   10101   20101   30101
 
      640     540     639     641     740
        0   40101   10101   20101   30101
 
      641     541     640     642     741
        0   40101   10101   20101   30101
 
      642     542     641     643     742
        0   40101   10101   20101   30101
 
      643     543     642     644     743
        0   40101   10101   20101   30101
 
      644     544     643     645     744
        0   40101   10101   20101   30101
 
      645     545     644     646     745
        0   40101   10101   20101   30101
 
      646     546     645     647     746
        0   40101   10101   20101   30101
 
      647     547     646     648     747
        0   40101   10101   20101   30101
 
      648     548     647     649     748
        0   40101   10101   20101   30101
 
      649     549     648     650     749
        0   40101   10101   20101   30101
 
      650     550     649     651     750
        0   40101   10101   20101   30101
 
      651     551     650     652     751
        0   40101   10101   20101   30101
 
      652     552     651     653     752
        0   40101   10101   20101   30101
 
      653     553     652     654     753
        0   40101   10101   20101   30101
 
      654     554     653     655     754
        0   40101   10101   20101   30101
 
      655     555     654     656     755
        0   40101   10101   20101   30101
 
      656     556     655     657     756
        0   40101   10101   20101   30101
 
      657     557     656     658     757
        0   40101   10101   20101   30101
 
      658     558     657     659     758
        0   40101   10101   20101   30101
 
      659     559     658     660     759
        0   40101   10101   20101   30101
 
      660     560     659     661     760
        0   40101   10101   20101   30101
 
      661     561     660     662     761
        0   40101   10101   20101   30101
 
      662     562     661     663     762
        0   40101   10101   20101   30101
 
      663     563     662     664     763
        0   40101   10101   20101   30101
 
      664     564     663     665     764
        0   40101   10101   20101   30101
 
      665     565     664     666     765
        0   40101   10101   20101   30101
 
      666     566     665     667     766
        0   40101   10101   20101   30101
 
      667     567     666     668     767
        0   40101   10101   20101   30101
 
      668     568     667     669     768
        0   40101   10101   20101   30101
 
      669     569     668     670     769
        0   40101   10101   20101   30101
 
      670     570     669     671     770
        0   40101   10101   20101   30101
 
      671     571     670     672     771
        0   40101   10101   20101   30101
 
      672     572     671     673     772
        0   40101   10101   20101   30101
 
      673     573     672     674     773
        0   40101   10101   20101   30101
 
      674     574     673     675     774
        0   40101   10101   20101   30101
 
      675     575     674     676     775
        0   40101   10101   20101   30101
 
      676     576     675     677     776
        0   40101   10101   20101   30101
 
      677     577     676     678     777
        0   40101   10101   20101   30101
 
      678     578     677     679     778
        0   40101   10101   20101   30101
 
      679     579     678     680     779
        0   40101   10101   20101   30101
 
      680     580     679     681     780
        0   40101   10101   20101   30101
 
      681     581     680     682     781
        0   40101   10101   20101   30101
 
      682     582     681     683     782
        0   40101   10101   20101   30101
 
      683     583     682     684     783
        0   40101   10101   20101   30101
 
      684     584     683     685     784
        0   40101   10101   20101   30101
 
      685     585     684     686     785
        0   40101   10101   20101   30101
 
      686     586     685     687     786
        0   40101   10101   20101   30101
 
      687     587     686     688     787
        0   40101   10101   20101   30101
 
      688     588     687     689     788
        0   40101   10101   20101   30101
 
      689     589     688     690     789
        0   40101   10101   20101   30101
 
      690     590     689     691     790
        0   40101   10101   20101   30101
 
      691     591     690     692     791
        0   40101   10101   20101   30101
 
      692     592     691     693     792
        0   40101   10101   20101   30101
 
      693     593     692     694     793
        0   40101   10101   20101   30101
 
      694     594     693     695     794
        0   40101   10101   20101   30101
 
      695     595     694     696     795
        0   40101   10101   20101   30101
 
      696     596     695     697     796
        0   40101   10101   20101   30101
 
      697     597     696     698     797
        0   40101   10101   20101   30101
 
      698     598     697     699     798
        0   40101   10101   20101   30101
 
      699     599     698     700     799
        0   40101   10101   20101   30101
 
      700     600     699     800
        0   40101   10101   30101
 
      701     601     702     801
        0   40101   20101   30101
 
      702     602     701     703     802
        0   40101   10101   20101   30101
 
      703     603     702     704     803
        0   40101   10101   20101   30101
 
      704     604     703     705     804
        0   40101   10101   20101   30101
 
      705     605     704     706     805
        0   40101   10101   20101   30101
 
      706     606     705     707     806
        0   40101   10101   20101   30101
 
      707     607     706     708     807
        0   40101   10101   20101   30101
 
      708     608     707     709     808
        0   40101   10101   20101   30101
 
      709     609     708     710     809
        0   40101   10101   20101   30101
 
      710     610     709     711     810
        0   40101   10101   20101   30101
 
      711     611     710     712     811
        0   40101   10101   20101   30101
 
      712     612     711     713     812
        0   40101   10101   20101   30101
 
      713     613     712     714     813
        0   40101   10101   20101   30101
 
      714     614     713     715     814
        0   40101   10101   20101   30101
 
      715     615     714     716     815
        0   40101   10101   20101   30101
 
      716     616     715     717     816
        0   40101   10101   20101   30101
 
      717     617     716     718     817
        0   40101   10101   20101   30101
 
      718     618     717     719     818
        0   40101   10101   20101   30101
 
      719     619     718     720     819
        0   40101   10101   20101   30101
 
      720     620     719     721     820
        0   40101   10101   20101   30101
 
      721     621     720     722     821
        0   40101   10101   20101   30101
 
      722     622     721     723     822
        0   40101   10101   20101   30101
 
      723     623     722     724     823
        0   40101   10101   20101   30101
 
      724     624     723     725     824
        0   40101   10101   20101   30101
 
      725     625     724     726     825
        0   40101   10101   20101   30101
 
      726     626     725     727     826
        0   40101   10101   20101   30101
 
      727     627     726     728     827
        0   40101   10101   20101   30101
 
      728     628     727     729     828
        0   40101   10101   20101   30101
 
      729     629     728     730     829
        0   40101   10101   20101   30101
 
      730     630     729     731     830
        0   40101   10101   20101   30101
 
      731     631     730     732     831
        0   40101   10101   20101   30101
 
      732     632     731     733     832
        0   40101   10101   20101   30101
 
      733     633     732     734     833
        0   40101   10101   20101   30101
 
      734     634     733     735     834
        0   40101   10101   20101   30101
 
      735     635     734     736     835
        0   40101   10101   20101   30101
 
      736     636     735     737     836
        0   40101   10101   20101   30101
 
      737     637     736     738     837
        0   40101   10101   20101   30101
 
      738     638     737     739     838
        0   40101   10101   20101   30101
 
      739     639     738     740     839
        0   40101   10101   20101   30101
 
      740     640     739     741     840
        0   40101   10101   20101   30101
 
      741     641     740     742     841
        0   40101   10101   20101   30101
 
      742     642     741     743     842
        0   40101   10101   20101   30101
 
      743     643     742     744     843
        0   40101   10101   20101   30101
 
      744     644     743     745     844
        0   40101   10101   20101   30101
 
      745     645     744     746     845
        0   40101   10101   20101   30101
 
      746     646     745     747     846
        0   40101   10101   20101   30101
 
      747     647     746     748     847
        0   40101   10101   20101   30101
 
      748     648     747     749     848
        0   40101   10101   20101   30101
 
      749     649     748     750     849
        0   40101   10101   20101   30101
 
      750     650     749     751     850
        0   40101   10101   20101   30101
 
      751     651     750     752     851
        0   40101   10101   20101   30101
 
      752     652     751     753     852
        0   40101   10101   20101   30101
 
      753     653     752     754     853
        0   40101   10101   20101   30101
 
      754     654     753     755     854
        0   40101   10101   20101   30101
 
      755     655     754     756     855
        0   40101   10101   20101   30101
 
      756     656     755     757     856
        0   40101   10101   20101   30101
 
      757     657     756     758     857
        0   40101   10101   20101   30101
 
      758     658     757     759     858
        0   40101   10101   20101   30101
 
      759     659     758     760     859
        0   40101   10101   20101   30101
 
      760     660     759     761     860
        0   40101   10101   20101   30101
 
      761     661     760     762     861
        0   40101   10101   20101   30101
 
      762     662     761     763     862
        0   40101   10101   20101   30101
 
      763     663     762     764     863
        0   40101   10101   20101   30101
 
      764     664     763     765     864
        0   40101   10101   20101   30101
 
      765     665     764     766     865
        0   40101   10101   20101   30101
 
      766     666     765     767     866
        0   40101   10101   20101   30101
 
      767     667     766     768     867
        0   40101   10101   20101   30101
 
      768     668     767     769     868
        0   40101   10101   20101   30101
 
      769     669     768     770     869
        0   40101   10101   20101   30101
 
      770     670     769     771     870
        0   40101   10101   20101   30101
 
      771     671     770     772     871
        0   40101   10101   20101   30101
 
      772     672     771     773     872
        0   40101   10101   20101   30101
 
      773     673     772     774     873
        0   40101   10101   20101   30101
 
      774     674     773     775     874
        0   40101   10101   20101   30101
 
      775     675     774     776     875
        0   40101   10101   20101   30101
 
      776     676     775     777     876
        0   40101   10101   20101   30101
 
      777     677     776     778     877
        0   40101   10101   20101   30101
 
      778     678     777     779     878
        0   40101   10101   20101   30101
 
      779     679     778     780     879
        0   40101   10101   20101   30101
 
      780     680     779     781     880
        0   40101   10101   20101   30101
 
      781     681     780     782     881
        0   40101   10101   20101   30101
 
      782     682     781     783     882
        0   40101   10101   20101   30101
 
      783     683     782     784     883
        0   40101   10101   20101   30101
 
      784     684     783     785     884
        0   40101   10101   20101   30101
 
      785     685     784     786     885
        0   40101   10101   20101   30101
 
      786     686     785     787     886
        0   40101   10101   20101   30101
 
      787     687     786     788     887
        0   40101   10101   20101   30101
 
      788     688     787     789     888
        0   40101   10101   20101   30101
 
      789     689     788     790     889
        0   40101   10101   20101   30101
 
      790     690     789     791     890
        0   40101   10101   20101   30101
 
      791     691     790     792     891
        0   40101   10101   20101   30101
 
      792     692     791     793     892
        0   40101   10101   20101   30101
 
      793     693     792     794     893
        0   40101   10101   20101   30101
 
      794     694     793     795     894
        0   40101   10101   20101   30101
 
      795     695     794     796     895
        0   40101   10101   20101   30101
 
      796     696     795     797     896
        0   40101   10101   20101   30101
 
      797     697     796     798     897
        0   40101   10101   20101   30101
 
      798     698     797     799     898
        0   40101   10101   20101   30101
 
      799     699     798     800     899
        0   40101   10101   20101   30101
 
      800     700     799     900
        0   40101   10101   30101
 
      801     701     802     901
        0   40101   20101   30101
 
      802     702     801     803     902
        0   40101   10101   20101   30101
 
      803     703     802     804     903
        0   40101   10101   20101   30101
 
      804     704     803     805     904
        0   40101   10101   20101   30101
 
      805     705     804     806     905
        0   40101   10101   20101   30101
 
      806     706     805     807     906
        0   40101   10101   20101   30101
 
      807     707     806     808     907
        0   40101   10101   20101   30101
 
      808     708     807     809     908
        0   40101   10101   20101   30101
 
      809     709     808     810     909
        0   40101   10101   20101   30101
 
      810     710     809     811     910
        0   40101   10101   20101   30101
 
      811     711     810     812     911
        0   40101   10101   20101   30101
 
      812     712     811     813     912
        0   40101   10101   20101   30101
 
      813     713     812     814     913
        0   40101   10101   20101   30101
 
      814     714     813     815     914
        0   40101   10101   20101   30101
 
      815     715     814     816     915
        0   40101   10101   20101   30101
 
      816     716     815     817     916
        0   40101   10101   20101   30101
 
      817     717     816     818     917
        0   40101   10101   20101   30101
 
      818     718     817     819     918
        0   40101   10101   20101   30101
 
      819     719     818     820     919
        0   40101   10101   20101   30101
 
      820     720     819     821     920
        0   40101   10101   20101   30101
 
      821     721     820     822     921
        0   40101   10101   20101   30101
 
      822     722     821     823     922
        0   40101   10101   20101   30101
 
      823     723     822     824     923
        0   40101   10101   20101   30101
 
      824     724     823     825     924
        0   40101   10101   20101   30101
 
      825     725     824     826     925
        0   40101   10101   20101   30101
 
      826     726     825     827     926
        0   40101   10101   20101   30101
 
      827     727     826     828     927
        0   40101   10101   20101   30101
 
      828     728     827     829     928
        0   40101   10101   20101   30101
 
      829     729     828     830     929
        0   40101   10101   20101   30101
 
      830     730     829     831     930
        0   40101   10101   20101   30101
 
      831     731     830     832     931
        0   40101   10101   20101   30101
 
      832     732     831     833     932
        0   40101   10101   20101   30101
 
      833     733     832     834     933
        0   40101   10101   20101   30101
 
      834     734     833     835     934
        0   40101   10101   20101   30101
 
      835     735     834     836     935
        0   40101   10101   20101   30101
 
      836     736     835     837     936
        0   40101   10101   20101   30101
 
      837     737     836     838     937
        0   40101   10101   20101   30101
 
      838     738     837     839     938
        0   40101   10101   20101   30101
 
      839     739     838     840     939
        0   40101   10101   20101   30101
 
      840     740     839     841     940
        0   40101   10101   20101   30101
 
      841     741     840     842     941
        0   40101   10101   20101   30101
 
      842     742     841     843     942
        0   40101   10101   20101   30101
 
      843     743     842     844     943
        0   40101   10101   20101   30101
 
      844     744     843     845     944
        0   40101   10101   20101   30101
 
      845     745     844     846     945
        0   40101   10101   20101   30101
 
      846     746     845     847     946
        0   40101   10101   20101   30101
 
      847     747     846     848     947
        0   40101   10101   20101   30101
 
      848     748     847     849     948
        0   40101   10101   20101   30101
 
      849     749     848     850     949
        0   40101   10101   20101   30101
 
      850     750     849     851     950
        0   40101   10101   20101   30101
 
      851     751     850     852     951
        0   40101   10101   20101   30101
 
      852     752     851     853     952
        0   40101   10101   20101   30101
 
      853     753     852     854     953
        0   40101   10101   20101   30101
 
      854     754     853     855     954
        0   40101   10101   20101   30101
 
      855     755     854     856     955
        0   40101   10101   20101   30101
 
      856     756     855     857     956
        0   40101   10101   20101   30101
 
      857     757     856     858     957
        0   40101   10101   20101   30101
 
      858     758     857     859     958
        0   40101   10101   20101   30101
 
      859     759     858     860     959
        0   40101   10101   20101   30101
 
      860     760     859     861     960
        0   40101   10101   20101   30101
 
      861     761     860     862     961
        0   40101   10101   20101   30101
 
      862     762     861     863     962
        0   40101   10101   20101   30101
 
      863     763     862     864     963
        0   40101   10101   20101   30101
 
      864     764     863     865     964
        0   40101   10101   20101   30101
 
      865     765     864     866     965
        0   40101   10101   20101   30101
 
      866     766     865     867     966
        0   40101   10101   20101   30101
 
      867     767     866     868     967
        0   40101   10101   20101   30101
 
      868     768     867     869     968
        0   40101   10101   20101   30101
 
      869     769     868     870     969
        0   40101   10101   20101   30101
 
      870     770     869     871     970
        0   40101   10101   20101   30101
 
      871     771     870     872     971
        0   40101   10101   20101   30101
 
      872     772     871     873     972
        0   40101   10101   20101   30101
 
      873     773     872     874     973
        0   40101   10101   20101   30101
 
      874     774     873     875     974
        0   40101   10101   20101   30101
 
      875     775     874     876     975
        0   40101   10101   20101   30101
 
      876     776     875     877     976
        0   40101   10101   20101   30101
 
      877     777     876     878     977
        0   40101   10101   20101   30101
 
      878     778     877     879     978
        0   40101   10101   20101   30101
 
      879     779     878     880     979
        0   40101   10101   20101   30101
 
      880     780     879     881     980
        0   40101   10101   20101   30101
 
      881     781     880     882     981
        0   40101   10101   20101   30101
 
      882     782     881     883     982
        0   40101   10101   20101   30101
 
      883     783     882     884     983
        0   40101   10101   20101   30101
 
      884     784     883     885     984
        0   40101   10101   20101   30101
 
      885     785     884     886     985
        0   40101   10101   20101   30101
 
      886     786     885     887     986
        0   40101   10101   20101   30101
 
      887     787     886     888     987
        0   40101   10101   20101   30101
 
      888     788     887     889     988
        0   40101   10101   20101   30101
 
      889     789     888     890     989
        0   40101   10101   20101   30101
 
      890     790     889     891     990
        0   40101   10101   20101   30101
 
      891     791     890     892     991
        0   40101   10101   20101   30101
 
      892     792     891     893     992
        0   40101   10101   20101   30101
 
      893     793     892     894     993
        0   40101   10101   20101   30101
 
      894     794     893     895     994
        0   40101   10101   20101   30101
 
      895     795     894     896     995
        0   40101   10101   20101   30101
 
      896     796     895     897     996
        0   40101   10101   20101   30101
 
      897     797     896     898     997
        0   40101   10101   20101   30101
 
      898     798     897     899     998
        0   40101   10101   20101   30101
 
      899     799     898     900     999
        0   40101   10101   20101   30101
 
      900     800     899    1000
        0   40101   10101   30101
 
      901     801     902    1001
        0   40101   20101   30101
 
      902     802     901     903    1002
        0   40101   10101   20101   30101
 
      903     803     902     904    1003
        0   40101   10101   20101   30101
 
      904     804     903     905    1004
        0   40101   10101   20101   30101
 
      905     805     904     906    1005
        0   40101   10101   20101   30101
 
      906     806     905     907    1006
        0   40101   10101   20101   30101
 
      907     807     906     908    1007
        0   40101   10101   20101   30101
 
      908     808     907     909    1008
        0   40101   10101   20101   30101
 
      909     809     908     910    1009
        0   40101   10101   20101   30101
 
      910     810     909     911    1010
        0   40101   10101   20101   30101
 
      911     811     910     912    1011
        0   40101   10101   20101   30101
 
      912     812     911     913    1012
        0   40101   10101   20101   30101
 
      913     813     912     914    1013
        0   40101   10101   20101   30101
 
      914     814     913     915    1014
        0   40101   10101   20101   30101
 
      915     815     914     916    1015
        0   40101   10101   20101   30101
 
      916     816     915     917    1016
        0   40101   10101   20101   30101
 
      917     817     916     918    1017
        0   40101   10101   20101   30101
 
      918     818     917     919    1018
        0   40101   10101   20101   30101
 
      919     819     918     920    1019
        0   40101   10101   20101   30101
 
      920     820     919     921    1020
        0   40101   10101   20101   30101
 
      921     821     920     922    1021
        0   40101   10101   20101   30101
 
      922     822     921     923    1022
        0   40101   10101   20101   30101
 
      923     823     922     924    1023
        0   40101   10101   20101   30101
 
      924     824     923     925    1024
        0   40101   10101   20101   30101
 
      925     825     924     926    1025
        0   40101   10101   20101   30101
 
      926     826     925     927    1026
        0   40101   10101   20101   30101
 
      927     827     926     928    1027
        0   40101   10101   20101   30101
 
      928     828     927     929    1028
        0   40101   10101   20101   30101
 
      929     829     928     930    1029
        0   40101   10101   20101   30101
 
      930     830     929     931    1030
        0   40101   10101   20101   30101
 
      931     831     930     932    1031
        0   40101   10101   20101   30101
 
      932     832     931     933    1032
        0   40101   10101   20101   30101
 
      933     833     932     934    1033
        0   40101   10101   20101   30101
 
      934     834     933     935    1034
        0   40101   10101   20101   30101
 
      935     835     934     936    1035
        0   40101   10101   20101   30101
 
      936     836     935     937    1036
        0   40101   10101   20101   30101
 
      937     837     936     938    1037
        0   40101   10101   20101   30101
 
      938     838     937     939    1038
        0   40101   10101   20101   30101
 
      939     839     938     940    1039
        0   40101   10101   20101   30101
 
      940     840     939     941    1040
        0   40101   10101   20101   30101
 
      941     841     940     942    1041
        0   40101   10101   20101   30101
 
      942     842     941     943    1042
        0   40101   10101   20101   30101
 
      943     843     942     944    1043
        0   40101   10101   20101   30101
 
      944     844     943     945    1044
        0   40101   10101   20101   30101
 
      945     845     944     946    1045
[...]
        0   40101   10101   20101   30101
 
     9759    9659    9758    9760    9859
        0   40101   10101   20101   30101
 
     9760    9660    9759    9761    9860
        0   40101   10101   20101   30101
 
     9761    9661    9760    9762    9861
        0   40101   10101   20101   30101
 
     9762    9662    9761    9763    9862
        0   40101   10101   20101   30101
 
     9763    9663    9762    9764    9863
        0   40101   10101   20101   30101
 
     9764    9664    9763    9765    9864
        0   40101   10101   20101   30101
 
     9765    9665    9764    9766    9865
        0   40101   10101   20101   30101
 
     9766    9666    9765    9767    9866
        0   40101   10101   20101   30101
 
     9767    9667    9766    9768    9867
        0   40101   10101   20101   30101
 
     9768    9668    9767    9769    9868
        0   40101   10101   20101   30101
 
     9769    9669    9768    9770    9869
        0   40101   10101   20101   30101
 
     9770    9670    9769    9771    9870
        0   40101   10101   20101   30101
 
     9771    9671    9770    9772    9871
        0   40101   10101   20101   30101
 
     9772    9672    9771    9773    9872
        0   40101   10101   20101   30101
 
     9773    9673    9772    9774    9873
        0   40101   10101   20101   30101
 
     9774    9674    9773    9775    9874
        0   40101   10101   20101   30101
 
     9775    9675    9774    9776    9875
        0   40101   10101   20101   30101
 
     9776    9676    9775    9777    9876
        0   40101   10101   20101   30101
 
     9777    9677    9776    9778    9877
        0   40101   10101   20101   30101
 
     9778    9678    9777    9779    9878
        0   40101   10101   20101   30101
 
     9779    9679    9778    9780    9879
        0   40101   10101   20101   30101
 
     9780    9680    9779    9781    9880
        0   40101   10101   20101   30101
 
     9781    9681    9780    9782    9881
        0   40101   10101   20101   30101
 
     9782    9682    9781    9783    9882
        0   40101   10101   20101   30101
 
     9783    9683    9782    9784    9883
        0   40101   10101   20101   30101
 
     9784    9684    9783    9785    9884
        0   40101   10101   20101   30101
 
     9785    9685    9784    9786    9885
        0   40101   10101   20101   30101
 
     9786    9686    9785    9787    9886
        0   40101   10101   20101   30101
 
     9787    9687    9786    9788    9887
        0   40101   10101   20101   30101
 
     9788    9688    9787    9789    9888
        0   40101   10101   20101   30101
 
     9789    9689    9788    9790    9889
        0   40101   10101   20101   30101
 
     9790    9690    9789    9791    9890
        0   40101   10101   20101   30101
 
     9791    9691    9790    9792    9891
        0   40101   10101   20101   30101
 
     9792    9692    9791    9793    9892
        0   40101   10101   20101   30101
 
     9793    9693    9792    9794    9893
        0   40101   10101   20101   30101
 
     9794    9694    9793    9795    9894
        0   40101   10101   20101   30101
 
     9795    9695    9794    9796    9895
        0   40101   10101   20101   30101
 
     9796    9696    9795    9797    9896
        0   40101   10101   20101   30101
 
     9797    9697    9796    9798    9897
        0   40101   10101   20101   30101
 
     9798    9698    9797    9799    9898
        0   40101   10101   20101   30101
 
     9799    9699    9798    9800    9899
        0   40101   10101   20101   30101
 
     9800    9700    9799    9900
        0   40101   10101   30101
 
     9801    9701    9802    9901
        0   40101   20101   30101
 
     9802    9702    9801    9803    9902
        0   40101   10101   20101   30101
 
     9803    9703    9802    9804    9903
        0   40101   10101   20101   30101
 
     9804    9704    9803    9805    9904
        0   40101   10101   20101   30101
 
     9805    9705    9804    9806    9905
        0   40101   10101   20101   30101
 
     9806    9706    9805    9807    9906
        0   40101   10101   20101   30101
 
     9807    9707    9806    9808    9907
        0   40101   10101   20101   30101
 
     9808    9708    9807    9809    9908
        0   40101   10101   20101   30101
 
     9809    9709    9808    9810    9909
        0   40101   10101   20101   30101
 
     9810    9710    9809    9811    9910
        0   40101   10101   20101   30101
 
     9811    9711    9810    9812    9911
        0   40101   10101   20101   30101
 
     9812    9712    9811    9813    9912
        0   40101   10101   20101   30101
 
     9813    9713    9812    9814    9913
        0   40101   10101   20101   30101
 
     9814    9714    9813    9815    9914
        0   40101   10101   20101   30101
 
     9815    9715    9814    9816    9915
        0   40101   10101   20101   30101
 
     9816    9716    9815    9817    9916
        0   40101   10101   20101   30101
 
     9817    9717    9816    9818    9917
        0   40101   10101   20101   30101
 
     9818    9718    9817    9819    9918
        0   40101   10101   20101   30101
 
     9819    9719    9818    9820    9919
        0   40101   10101   20101   30101
 
     9820    9720    9819    9821    9920
        0   40101   10101   20101   30101
 
     9821    9721    9820    9822    9921
        0   40101   10101   20101   30101
 
     9822    9722    9821    9823    9922
        0   40101   10101   20101   30101
 
     9823    9723    9822    9824    9923
        0   40101   10101   20101   30101
 
     9824    9724    9823    9825    9924
        0   40101   10101   20101   30101
 
     9825    9725    9824    9826    9925
        0   40101   10101   20101   30101
 
     9826    9726    9825    9827    9926
        0   40101   10101   20101   30101
 
     9827    9727    9826    9828    9927
        0   40101   10101   20101   30101
 
     9828    9728    9827    9829    9928
        0   40101   10101   20101   30101
 
     9829    9729    9828    9830    9929
        0   40101   10101   20101   30101
 
     9830    9730    9829    9831    9930
        0   40101   10101   20101   30101
 
     9831    9731    9830    9832    9931
        0   40101   10101   20101   30101
 
     9832    9732    9831    9833    9932
        0   40101   10101   20101   30101
 
     9833    9733    9832    9834    9933
        0   40101   10101   20101   30101
 
     9834    9734    9833    9835    9934
        0   40101   10101   20101   30101
 
     9835    9735    9834    9836    9935
        0   40101   10101   20101   30101
 
     9836    9736    9835    9837    9936
        0   40101   10101   20101   30101
 
     9837    9737    9836    9838    9937
        0   40101   10101   20101   30101
 
     9838    9738    9837    9839    9938
        0   40101   10101   20101   30101
 
     9839    9739    9838    9840    9939
        0   40101   10101   20101   30101
 
     9840    9740    9839    9841    9940
        0   40101   10101   20101   30101
 
     9841    9741    9840    9842    9941
        0   40101   10101   20101   30101
 
     9842    9742    9841    9843    9942
        0   40101   10101   20101   30101
 
     9843    9743    9842    9844    9943
        0   40101   10101   20101   30101
 
     9844    9744    9843    9845    9944
        0   40101   10101   20101   30101
 
     9845    9745    9844    9846    9945
        0   40101   10101   20101   30101
 
     9846    9746    9845    9847    9946
        0   40101   10101   20101   30101
 
     9847    9747    9846    9848    9947
        0   40101   10101   20101   30101
 
     9848    9748    9847    9849    9948
        0   40101   10101   20101   30101
 
     9849    9749    9848    9850    9949
        0   40101   10101   20101   30101
 
     9850    9750    9849    9851    9950
        0   40101   10101   20101   30101
 
     9851    9751    9850    9852    9951
        0   40101   10101   20101   30101
 
     9852    9752    9851    9853    9952
        0   40101   10101   20101   30101
 
     9853    9753    9852    9854    9953
        0   40101   10101   20101   30101
 
     9854    9754    9853    9855    9954
        0   40101   10101   20101   30101
 
     9855    9755    9854    9856    9955
        0   40101   10101   20101   30101
 
     9856    9756    9855    9857    9956
        0   40101   10101   20101   30101
 
     9857    9757    9856    9858    9957
        0   40101   10101   20101   30101
 
     9858    9758    9857    9859    9958
        0   40101   10101   20101   30101
 
     9859    9759    9858    9860    9959
        0   40101   10101   20101   30101
 
     9860    9760    9859    9861    9960
        0   40101   10101   20101   30101
 
     9861    9761    9860    9862    9961
        0   40101   10101   20101   30101
 
     9862    9762    9861    9863    9962
        0   40101   10101   20101   30101
 
     9863    9763    9862    9864    9963
        0   40101   10101   20101   30101
 
     9864    9764    9863    9865    9964
        0   40101   10101   20101   30101
 
     9865    9765    9864    9866    9965
        0   40101   10101   20101   30101
 
     9866    9766    9865    9867    9966
        0   40101   10101   20101   30101
 
     9867    9767    9866    9868    9967
        0   40101   10101   20101   30101
 
     9868    9768    9867    9869    9968
        0   40101   10101   20101   30101
 
     9869    9769    9868    9870    9969
        0   40101   10101   20101   30101
 
     9870    9770    9869    9871    9970
        0   40101   10101   20101   30101
 
     9871    9771    9870    9872    9971
        0   40101   10101   20101   30101
 
     9872    9772    9871    9873    9972
        0   40101   10101   20101   30101
 
     9873    9773    9872    9874    9973
        0   40101   10101   20101   30101
 
     9874    9774    9873    9875    9974
        0   40101   10101   20101   30101
 
     9875    9775    9874    9876    9975
        0   40101   10101   20101   30101
 
     9876    9776    9875    9877    9976
        0   40101   10101   20101   30101
 
     9877    9777    9876    9878    9977
        0   40101   10101   20101   30101
 
     9878    9778    9877    9879    9978
        0   40101   10101   20101   30101
 
     9879    9779    9878    9880    9979
        0   40101   10101   20101   30101
 
     9880    9780    9879    9881    9980
        0   40101   10101   20101   30101
 
     9881    9781    9880    9882    9981
        0   40101   10101   20101   30101
 
     9882    9782    9881    9883    9982
        0   40101   10101   20101   30101
 
     9883    9783    9882    9884    9983
        0   40101   10101   20101   30101
 
     9884    9784    9883    9885    9984
        0   40101   10101   20101   30101
 
     9885    9785    9884    9886    9985
        0   40101   10101   20101   30101
 
     9886    9786    9885    9887    9986
        0   40101   10101   20101   30101
 
     9887    9787    9886    9888    9987
        0   40101   10101   20101   30101
 
     9888    9788    9887    9889    9988
        0   40101   10101   20101   30101
 
     9889    9789    9888    9890    9989
        0   40101   10101   20101   30101
 
     9890    9790    9889    9891    9990
        0   40101   10101   20101   30101
 
     9891    9791    9890    9892    9991
        0   40101   10101   20101   30101
 
     9892    9792    9891    9893    9992
        0   40101   10101   20101   30101
 
     9893    9793    9892    9894    9993
        0   40101   10101   20101   30101
 
     9894    9794    9893    9895    9994
        0   40101   10101   20101   30101
 
     9895    9795    9894    9896    9995
        0   40101   10101   20101   30101
 
     9896    9796    9895    9897    9996
        0   40101   10101   20101   30101
 
     9897    9797    9896    9898    9997
        0   40101   10101   20101   30101
 
     9898    9798    9897    9899    9998
        0   40101   10101   20101   30101
 
     9899    9799    9898    9900    9999
        0   40101   10101   20101   30101
 
     9900    9800    9899   10000
        0   40101   10101   30101
 
     9901    9801    9902
        0   40101   20101
 
     9902    9802    9901    9903
        0   40101   10101   20101
 
     9903    9803    9902    9904
        0   40101   10101   20101
 
     9904    9804    9903    9905
        0   40101   10101   20101
 
     9905    9805    9904    9906
        0   40101   10101   20101
 
     9906    9806    9905    9907
        0   40101   10101   20101
 
     9907    9807    9906    9908
        0   40101   10101   20101
 
     9908    9808    9907    9909
        0   40101   10101   20101
 
     9909    9809    9908    9910
        0   40101   10101   20101
 
     9910    9810    9909    9911
        0   40101   10101   20101
 
     9911    9811    9910    9912
        0   40101   10101   20101
 
     9912    9812    9911    9913
        0   40101   10101   20101
 
     9913    9813    9912    9914
        0   40101   10101   20101
 
     9914    9814    9913    9915
        0   40101   10101   20101
 
     9915    9815    9914    9916
        0   40101   10101   20101
 
     9916    9816    9915    9917
        0   40101   10101   20101
 
     9917    9817    9916    9918
        0   40101   10101   20101
 
     9918    9818    9917    9919
        0   40101   10101   20101
 
     9919    9819    9918    9920
        0   40101   10101   20101
 
     9920    9820    9919    9921
        0   40101   10101   20101
 
     9921    9821    9920    9922
        0   40101   10101   20101
 
     9922    9822    9921    9923
        0   40101   10101   20101
 
     9923    9823    9922    9924
        0   40101   10101   20101
 
     9924    9824    9923    9925
        0   40101   10101   20101
 
     9925    9825    9924    9926
        0   40101   10101   20101
 
     9926    9826    9925    9927
        0   40101   10101   20101
 
     9927    9827    9926    9928
        0   40101   10101   20101
 
     9928    9828    9927    9929
        0   40101   10101   20101
 
     9929    9829    9928    9930
        0   40101   10101   20101
 
     9930    9830    9929    9931
        0   40101   10101   20101
 
     9931    9831    9930    9932
        0   40101   10101   20101
 
     9932    9832    9931    9933
        0   40101   10101   20101
 
     9933    9833    9932    9934
        0   40101   10101   20101
 
     9934    9834    9933    9935
        0   40101   10101   20101
 
     9935    9835    9934    9936
        0   40101   10101   20101
 
     9936    9836    9935    9937
        0   40101   10101   20101
 
     9937    9837    9936    9938
        0   40101   10101   20101
 
     9938    9838    9937    9939
        0   40101   10101   20101
 
     9939    9839    9938    9940
        0   40101   10101   20101
 
     9940    9840    9939    9941
        0   40101   10101   20101
 
     9941    9841    9940    9942
        0   40101   10101   20101
 
     9942    9842    9941    9943
        0   40101   10101   20101
 
     9943    9843    9942    9944
        0   40101   10101   20101
 
     9944    9844    9943    9945
        0   40101   10101   20101
 
     9945    9845    9944    9946
        0   40101   10101   20101
 
     9946    9846    9945    9947
        0   40101   10101   20101
 
     9947    9847    9946    9948
        0   40101   10101   20101
 
     9948    9848    9947    9949
        0   40101   10101   20101
 
     9949    9849    9948    9950
        0   40101   10101   20101
 
     9950    9850    9949    9951
        0   40101   10101   20101
 
     9951    9851    9950    9952
        0   40101   10101   20101
 
     9952    9852    9951    9953
        0   40101   10101   20101
 
     9953    9853    9952    9954
        0   40101   10101   20101
 
     9954    9854    9953    9955
        0   40101   10101   20101
 
     9955    9855    9954    9956
        0   40101   10101   20101
 
     9956    9856    9955    9957
        0   40101   10101   20101
 
     9957    9857    9956    9958
        0   40101   10101   20101
 
     9958    9858    9957    9959
        0   40101   10101   20101
 
     9959    9859    9958    9960
        0   40101   10101   20101
 
     9960    9860    9959    9961
        0   40101   10101   20101
 
     9961    9861    9960    9962
        0   40101   10101   20101
 
     9962    9862    9961    9963
        0   40101   10101   20101
 
     9963    9863    9962    9964
        0   40101   10101   20101
 
     9964    9864    9963    9965
        0   40101   10101   20101
 
     9965    9865    9964    9966
        0   40101   10101   20101
 
     9966    9866    9965    9967
        0   40101   10101   20101
 
     9967    9867    9966    9968
        0   40101   10101   20101
 
     9968    9868    9967    9969
        0   40101   10101   20101
 
     9969    9869    9968    9970
        0   40101   10101   20101
 
     9970    9870    9969    9971
        0   40101   10101   20101
 
     9971    9871    9970    9972
        0   40101   10101   20101
 
     9972    9872    9971    9973
        0   40101   10101   20101
 
     9973    9873    9972    9974
        0   40101   10101   20101
 
     9974    9874    9973    9975
        0   40101   10101   20101
 
     9975    9875    9974    9976
        0   40101   10101   20101
 
     9976    9876    9975    9977
        0   40101   10101   20101
 
     9977    9877    9976    9978
        0   40101   10101   20101
 
     9978    9878    9977    9979
        0   40101   10101   20101
 
     9979    9879    9978    9980
        0   40101   10101   20101
 
     9980    9880    9979    9981
        0   40101   10101   20101
 
     9981    9881    9980    9982
        0   40101   10101   20101
 
     9982    9882    9981    9983
        0   40101   10101   20101
 
     9983    9883    9982    9984
        0   40101   10101   20101
 
     9984    9884    9983    9985
        0   40101   10101   20101
 
     9985    9885    9984    9986
        0   40101   10101   20101
 
     9986    9886    9985    9987
        0   40101   10101   20101
 
     9987    9887    9986    9988
        0   40101   10101   20101
 
     9988    9888    9987    9989
        0   40101   10101   20101
 
     9989    9889    9988    9990
        0   40101   10101   20101
 
     9990    9890    9989    9991
        0   40101   10101   20101
 
     9991    9891    9990    9992
        0   40101   10101   20101
 
     9992    9892    9991    9993
        0   40101   10101   20101
 
     9993    9893    9992    9994
        0   40101   10101   20101
 
     9994    9894    9993    9995
        0   40101   10101   20101
 
     9995    9895    9994    9996
        0   40101   10101   20101
 
     9996    9896    9995    9997
        0   40101   10101   20101
 
     9997    9897    9996    9998
        0   40101   10101   20101
 
     9998    9898    9997    9999
        0   40101   10101   20101
 
     9999    9899    9998   10000
        0   40101   10101   20101
 
    10000    9900    9999
        0   40101   10101
 
Allocate budget reader component.
Open budget file in budget reader.
Allocate head reader component.
Open head file in head reader component.
Allocate MODPATH basic data component.
Read MODPATH basic data component.
Read the remainder of the MODPATH simulation data component.
Allocate particle tracking engine component.
Compute range of time steps. Prepare for time step loop                                                                             
Begin TIME_STEP_LOOP
Compute TSMAX                                                                                                                       
Begin TRACKING_INTERVAL_LOOP
Exit TRACKING_INTERVAL_LOOP
Exit TIME_STEP_LOOP
Write endpoint file.
Consolidating pathline segments.
Begin memory deallocation.
Memory deallocation complete.
